units(length='cm', time='s', quantity='mol', act_energy='kcal/mol')

ideal_gas(name='gas',
          elements="H D T C Ci O Oi N Ne Ar He Si S F Cl Br I X",
          species="""N2          Ne          fuel(1)     C2H5(2)
                     C3H5O2(3)   CH3(4)      C4H7O2(5)   C5H10O2(6)
                     CO2(7)      NC3H7(8)    C4H7O2(9)   C3H5O2(10)
                     C2H4(11)    IC3H7(12)   H(13)       C4H7O2(14)
                     C5H9O2(15)  C5H9O2(16)  H2(17)      C5H9O2(18)
                     C3H6O2(19)  CH4(20)     C5H9O2(21)  CH3OCO(22)
                     C3H6(23)    C2H6(24)    S(25)       C4H8O2(26)
                     CH2O(27)    CH3CO(28)   CO(29)      C5H9O2(30)
                     C4H6O2(31)  HCO(32)     C3H5-A(33)  S(34)
                     C3H5(35)    C4H8-1(36)  C4H8(37)    C3H6(38)
                     C5H9(39)    C2H5O(40)   C4H6O2(41)  C4H6O2(42)
                     C5H9O2(43)  C4H8-2(44)  C6H9O3(45)  S(46)
                     S(47)       C3H6(48)    DC5H11(49)  C2H5CO(50)
                     S(51)       S(52)       C2H4O2(53)  C4H6(54)
                     C4H6(55)    C4H6(56)    C6H11(57)   C6H10(58)
                     C6H10(59)   C4H6O2(60)  C7H13(61)   C4H5O2(62)
                     S(63)       S(64)       S(65)       C6H10(66)
                     C4H8O2(67)  C6H10(68)   C6H10(69)   C6H9(70)
                     C6H9(71)    C5H6(72)    C5H5(73)    C6H8(74)
                     C6H8(75)    C6H8(76)    S(1336)     S(1356)
                     S(5559)""",
          reactions='all',
          initial_state=state(temperature=300.0, pressure=OneAtm))

#-------------------------------------------------------------------------------
# Element data
#-------------------------------------------------------------------------------

element(symbol='Ci', atomic_mass=13.003)
element(symbol='D', atomic_mass=2.014)
element(symbol='Oi', atomic_mass=17.999)
element(symbol='T', atomic_mass=3.016)
element(symbol='X', atomic_mass=195.083)
#-------------------------------------------------------------------------------
# Species data
#-------------------------------------------------------------------------------

species(name='N2',
        atoms='N:2',
        thermo=(NASA([200.00, 1000.00],
                     [ 3.53101000E+00, -1.23661000E-04, -5.02999000E-07,
                       2.43531000E-09, -1.40881000E-12, -1.04698000E+03,
                       2.96747000E+00]),
                NASA([1000.00, 6000.00],
                     [ 2.95258000E+00,  1.39690000E-03, -4.92632000E-07,
                       7.86010000E-11, -4.60755000E-15, -9.23949000E+02,
                       5.87189000E+00])))

species(name='Ne',
        atoms='Ne:1',
        thermo=(NASA([200.00, 1000.00],
                     [ 2.50000000E+00,  0.00000000E+00,  0.00000000E+00,
                       0.00000000E+00,  0.00000000E+00, -7.45375000E+02,
                       3.35532000E+00]),
                NASA([1000.00, 6000.00],
                     [ 2.50000000E+00,  0.00000000E+00,  0.00000000E+00,
                       0.00000000E+00,  0.00000000E+00, -7.45375000E+02,
                       3.35532000E+00])))

species(name='fuel(1)',
        atoms='C:5 H:10 O:2',
        thermo=(NASA([10.00, 414.32],
                     [ 3.38980000E+00,  6.49748000E-02, -1.83645000E-04,
                       4.76951000E-07, -4.22154000E-10, -6.00821000E+04,
                       1.27607000E+01]),
                NASA([414.32, 3000.00],
                     [-6.62434000E-01,  6.43741000E-02, -3.76608000E-05,
                       1.06570000E-08, -1.17053000E-12, -5.94053000E+04,
                       3.28544000E+01])))

species(name='C2H5(2)',
        atoms='C:2 H:5',
        thermo=(NASA([10.00, 612.20],
                     [ 3.98878000E+00,  4.54437000E-04,  3.59220000E-05,
                      -4.69525000E-08,  1.98617000E-11,  1.16541000E+04,
                       5.72329000E+00]),
                NASA([612.20, 3000.00],
                     [ 1.17017000E+00,  1.88706000E-02, -9.20056000E-06,
                       2.18435000E-09, -2.03831000E-13,  1.19992000E+04,
                       1.79384000E+01])))

species(name='C3H5O2(3)',
        atoms='C:3 H:5 O:2',
        thermo=(NASA([10.00, 317.92],
                     [ 3.82427000E+00,  1.55064000E-02,  6.70207000E-05,
                      -1.77738000E-07,  1.43830000E-10, -3.06896000E+04,
                       1.01070000E+01]),
                NASA([317.92, 3000.00],
                     [ 2.34798000E+00,  3.40808000E-02, -2.06171000E-05,
                       6.03639000E-09, -6.83616000E-13, -3.05958000E+04,
                       1.55375000E+01])))

species(name='CH3(4)',
        atoms='C:1 H:3',
        thermo=(NASA([10.00, 545.22],
                     [ 3.98694000E+00,  7.14145000E-04,  9.33502000E-06,
                      -1.24320000E-08,  5.66541000E-12,  1.50601000E+04,
                       2.26125000E-01]),
                NASA([545.22, 3000.00],
                     [ 3.49066000E+00,  4.35532000E-03, -6.82944000E-07,
                      -1.82030000E-10,  4.81680000E-14,  1.51142000E+04,
                       2.31937000E+00])))

species(name='C4H7O2(5)',
        atoms='C:4 H:7 O:2',
        thermo=(NASA([10.00, 1123.61],
                     [ 3.87210000E+00,  2.82575000E-02,  1.26364000E-05,
                      -2.66053000E-08,  9.38435000E-12, -3.30191000E+04,
                       1.21616000E+01]),
                NASA([1123.61, 3000.00],
                     [ 7.26526000E+00,  3.30152000E-02, -1.61925000E-05,
                       3.83594000E-09, -3.56035000E-13, -3.48445000E+04,
                      -9.33355000E+00])))

species(name='C5H10O2(6)',
        atoms='C:5 H:10 O:2',
        thermo=(NASA([100.00, 983.46],
                     [ 1.21262600E-01,  7.45273852E-02, -5.04208145E-05,
                       6.20702781E-09,  4.73672987E-12, -4.36018243E+04,
                       2.52799612E+01]),
                NASA([983.46, 5000.00],
                     [ 1.81977859E+01,  2.39890773E-02, -8.39427804E-06,
                       1.48195406E-09, -1.03056180E-13, -4.82688140E+04,
                      -6.72782280E+01])))

species(name='CO2(7)',
        atoms='C:1 O:2',
        thermo=(NASA([10.00, 540.22],
                     [ 3.53669000E+00, -3.50225000E-03,  3.81227000E-05,
                      -6.77483000E-08,  3.94305000E-11, -4.94940000E+04,
                       5.39164000E+00]),
                NASA([540.22, 3000.00],
                     [ 2.74706000E+00,  7.12591000E-03, -4.66402000E-06,
                       1.43672000E-09, -1.68237000E-13, -4.94785000E+04,
                       8.06916000E+00])))

species(name='NC3H7(8)',
        atoms='C:3 H:7',
        thermo=(NASA([10.00, 860.19],
                     [ 3.87810000E+00,  1.17627000E-02,  2.95463000E-05,
                      -4.08655000E-08,  1.54397000E-11,  8.37163000E+03,
                       8.66924000E+00]),
                NASA([860.19, 3000.00],
                     [ 1.23304000E+00,  3.10909000E-02, -1.64141000E-05,
                       4.25336000E-09, -4.33940000E-13,  8.56666000E+03,
                       1.95204000E+01])))

species(name='C4H7O2(9)',
        atoms='C:4 H:7 O:2',
        thermo=(NASA([10.00, 892.48],
                     [ 3.71109000E+00,  2.94931000E-02,  1.73075000E-05,
                      -3.95692000E-08,  1.66013000E-11, -4.09145000E+04,
                       1.26988000E+01]),
                NASA([892.48, 3000.00],
                     [ 4.12372000E+00,  4.03500000E-02, -2.22955000E-05,
                       5.96584000E-09, -6.22431000E-13, -4.14942000E+04,
                       7.92005000E+00])))

species(name='C3H5O2(10)',
        atoms='C:3 H:5 O:2',
        thermo=(NASA([10.00, 102.08],
                     [ 3.96835000E+00,  4.90661000E-03,  4.83356000E-04,
                      -3.96550000E-06,  1.14157000E-08, -3.11475000E+04,
                       7.40566000E+00]),
                NASA([102.08, 3000.00],
                     [ 3.46336000E+00,  3.18921000E-02, -1.89323000E-05,
                       5.45863000E-09, -6.10612000E-13, -3.11409000E+04,
                       8.50589000E+00])))

species(name='C2H4(11)',
        atoms='C:2 H:4',
        thermo=(NASA([10.00, 764.16],
                     [ 4.10152000E+00, -6.83803000E-03,  5.06278000E-05,
                      -6.00166000E-08,  2.34734000E-11,  3.86657000E+03,
                       3.23030000E+00]),
                NASA([764.16, 3000.00],
                     [ 4.83158000E-01,  1.79561000E-02, -9.53239000E-06,
                       2.49285000E-09, -2.56604000E-13,  4.24865000E+03,
                       1.85952000E+01])))

species(name='IC3H7(12)',
        atoms='C:3 H:7',
        thermo=(NASA([10.00, 454.11],
                     [ 3.77356000E+00,  2.41192000E-02, -6.12158000E-05,
                       1.75282000E-07, -1.53213000E-10,  6.91675000E+03,
                       8.01782000E+00]),
                NASA([454.11, 3000.00],
                     [ 2.65700000E-01,  3.29904000E-02, -1.77588000E-05,
                       4.66773000E-09, -4.81024000E-13,  7.46247000E+03,
                       2.46728000E+01])))

species(name='H(13)',
        atoms='H:1',
        thermo=(NASA([100.00, 4101.03],
                     [ 2.50000000E+00,  1.56839909E-13, -2.12371896E-16,
                       9.39504946E-20, -1.27958334E-23,  2.54742178E+04,
                      -4.44972896E-01]),
                NASA([4101.03, 5000.00],
                     [ 2.49999696E+00,  2.82830243E-09, -9.83483362E-13,
                       1.51619205E-16, -8.74287095E-21,  2.54742204E+04,
                      -4.44953778E-01])))

species(name='C4H7O2(14)',
        atoms='C:4 H:7 O:2',
        thermo=(NASA([100.00, 926.99],
                     [ 9.01612161E-01,  5.67844997E-02, -2.89709079E-05,
                      -1.45589356E-08,  1.31765798E-11, -2.89042613E+04,
                       1.97386719E+01]),
                NASA([926.99, 5000.00],
                     [ 1.82890296E+01,  1.10287190E-02, -2.29693320E-06,
                       3.21489075E-10, -2.30864114E-14, -3.33855336E+04,
                      -6.96110354E+01])))

species(name='C5H9O2(15)',
        atoms='C:5 H:9 O:2',
        thermo=(NASA([10.00, 409.66],
                     [ 3.18122000E+00,  8.68418000E-02, -3.07691000E-04,
                       7.29291000E-07, -6.07747000E-10, -3.75460000E+04,
                       1.40119000E+01]),
                NASA([409.66, 3000.00],
                     [ 1.39292000E+00,  5.82280000E-02, -3.42133000E-05,
                       9.69842000E-09, -1.06561000E-12, -3.70128000E+04,
                       2.57623000E+01])))

species(name='C5H9O2(16)',
        atoms='C:5 H:9 O:2',
        thermo=(NASA([10.00, 412.70],
                     [ 3.26923000E+00,  7.63097000E-02, -2.28918000E-04,
                       5.33290000E-07, -4.45195000E-10, -3.63671000E+04,
                       1.39147000E+01]),
                NASA([412.70, 3000.00],
                     [ 1.40412000E+00,  5.86516000E-02, -3.48556000E-05,
                       1.00000000E-08, -1.11118000E-12, -3.59089000E+04,
                       2.49491000E+01])))

species(name='H2(17)',
        atoms='H:2',
        thermo=(NASA([100.00, 1959.10],
                     [ 3.43536477E+00,  2.12704667E-04, -2.78612148E-07,
                       3.40257051E-10, -7.76006950E-14, -1.03135988E+03,
                      -3.90841983E+00]),
                NASA([1959.10, 5000.00],
                     [ 2.78809738E+00,  5.87729871E-04,  1.58968784E-07,
                      -5.52655469E-11,  4.34250082E-15, -5.96103883E+02,
                       1.13138407E-01])))

species(name='C5H9O2(18)',
        atoms='C:5 H:9 O:2',
        thermo=(NASA([10.00, 1242.08],
                     [ 3.54192000E+00,  4.82697000E-02, -1.62264000E-05,
                      -4.37070000E-09,  2.85390000E-12, -3.71679000E+04,
                       1.32826000E+01]),
                NASA([1242.08, 3000.00],
                     [ 1.01489000E+01,  3.85294000E-02, -1.83961000E-05,
                       4.27192000E-09, -3.90798000E-13, -3.96992000E+04,
                      -2.36071000E+01])))

species(name='C3H6O2(19)',
        atoms='C:3 H:6 O:2',
        thermo=(NASA([10.00, 416.35],
                     [ 3.63360000E+00,  3.92815000E-02, -1.18697000E-04,
                       3.10045000E-07, -2.72763000E-10, -5.35065000E+04,
                       9.97034000E+00]),
                NASA([416.35, 3000.00],
                     [ 1.03359000E+00,  3.83777000E-02, -2.21941000E-05,
                       6.21532000E-09, -6.76528000E-13, -5.30656000E+04,
                       2.29298000E+01])))

species(name='CH4(20)',
        atoms='C:1 H:4',
        thermo=(NASA([100.00, 1084.12],
                     [ 4.20541641E+00, -5.35558709E-03,  2.51123719E-05,
                      -2.13763401E-08,  5.97526176E-12, -1.01619434E+04,
                      -9.21283497E-01]),
                NASA([1084.12, 5000.00],
                     [ 9.08258982E-01,  1.14540969E-02, -4.57174454E-06,
                       8.29193125E-10, -5.66316086E-14, -9.71997148E+03,
                       1.39931326E+01])))

species(name='C5H9O2(21)',
        atoms='C:5 H:9 O:2',
        thermo=(NASA([100.00, 1334.70],
                     [ 1.35880958E+00,  5.09285101E-02, -1.80353328E-05,
                      -2.84703331E-09,  2.20194852E-12, -3.56453002E+04,
                       2.62193523E+01]),
                NASA([1334.70, 5000.00],
                     [ 1.08323057E+01,  3.53135195E-02, -1.48451328E-05,
                       2.73146129E-09, -1.86309148E-13, -3.93121684E+04,
                      -2.64830223E+01])))

species(name='CH3OCO(22)',
        atoms='C:2 H:3 O:2',
        thermo=(NASA([100.00, 1366.10],
                     [ 3.17384978E+00,  1.60845315E-02, -2.93047820E-06,
                      -3.33788305E-09,  1.28643243E-12, -2.05572508E+04,
                       1.27605644E+01]),
                NASA([1366.10, 5000.00],
                     [ 6.09103553E+00,  1.31502201E-02, -5.86552651E-06,
                       1.09909977E-09, -7.54102431E-14, -2.18775107E+04,
                      -4.13825683E+00])))

species(name='C3H6(23)',
        atoms='C:3 H:6',
        thermo=(NASA([10.00, 530.38],
                     [ 4.02169000E+00, -1.83244000E-03,  7.49972000E-05,
                      -1.11006000E-07,  5.40017000E-11, -6.17183000E+02,
                       6.97233000E+00]),
                NASA([530.38, 3000.00],
                     [-2.90181000E-01,  3.06866000E-02, -1.69716000E-05,
                       4.59539000E-09, -4.87827000E-13, -1.59795000E+02,
                       2.50402000E+01])))

species(name='C2H6(24)',
        atoms='C:2 H:6',
        thermo=(NASA([10.00, 674.33],
                     [ 4.02843000E+00, -1.75971000E-03,  4.62515000E-05,
                      -5.50176000E-08,  2.12544000E-11, -1.26818000E+04,
                       3.52711000E+00]),
                NASA([674.33, 3000.00],
                     [-4.31083000E-01,  2.46934000E-02, -1.25916000E-05,
                       3.15696000E-09, -3.13137000E-13, -1.20803000E+04,
                       2.32845000E+01])))

species(name='S(25)',
        atoms='C:5 H:11 O:2',
        thermo=(NASA([10.00, 429.66],
                     [ 3.33714000E+00,  6.78219000E-02, -1.52168000E-04,
                       3.56862000E-07, -3.01540000E-10, -3.97352000E+04,
                       1.35023000E+01]),
                NASA([429.66, 3000.00],
                     [ 5.71408000E-02,  6.69026000E-02, -3.91454000E-05,
                       1.11107000E-08, -1.22536000E-12, -3.91630000E+04,
                       2.99344000E+01])))

species(name='C4H8O2(26)',
        atoms='C:4 H:8 O:2',
        thermo=(NASA([10.00, 957.85],
                     [ 3.77978000E+00,  2.72693000E-02,  2.63127000E-05,
                      -4.54424000E-08,  1.72710000E-11, -6.13730000E+04,
                       1.16869000E+01]),
                NASA([957.85, 3000.00],
                     [ 3.75920000E+00,  4.30402000E-02, -2.29475000E-05,
                       5.93841000E-09, -6.01387000E-13, -6.20886000E+04,
                       8.02925000E+00])))

species(name='CH2O(27)',
        atoms='C:1 H:2 O:1',
        thermo=(NASA([10.00, 600.85],
                     [ 4.03185000E+00, -1.93004000E-03,  8.94337000E-06,
                       2.88590000E-09, -7.86012000E-12, -1.54835000E+04,
                       3.47452000E+00]),
                NASA([600.85, 3000.00],
                     [ 1.40768000E+00,  9.48329000E-03, -4.43027000E-06,
                       9.49214000E-10, -7.45808000E-14, -1.50589000E+04,
                       1.57076000E+01])))

species(name='CH3CO(28)',
        atoms='C:2 H:3 O:1',
        thermo=(NASA([100.00, 1011.57],
                     [ 3.63677942E+00,  4.50842228E-03,  1.80295641E-05,
                      -2.25970781E-08,  7.88628654E-12, -2.54495153E+03,
                       9.39482470E+00]),
                NASA([1011.57, 5000.00],
                     [ 4.39399803E+00,  1.04823730E-02, -4.12727485E-06,
                       7.69397452E-10, -5.45059539E-14, -3.15699295E+03,
                       3.46498549E+00])))

species(name='CO(29)',
        atoms='C:1 O:1',
        thermo=(NASA([100.00, 1571.63],
                     [ 3.56838028E+00, -8.52128494E-04,  2.48918555E-06,
                      -1.56331751E-09,  3.13597403E-13, -1.42842550E+04,
                       3.57912067E+00]),
                NASA([1571.63, 5000.00],
                     [ 2.91305532E+00,  1.64659465E-03, -6.88623306E-07,
                       1.21039169E-10, -7.84031902E-15, -1.41808786E+04,
                       6.71052375E+00])))

species(name='C5H9O2(30)',
        atoms='C:5 H:9 O:2',
        thermo=(NASA([100.00, 974.03],
                     [ 3.32209413E-01,  6.91517760E-02, -4.09417689E-05,
                      -2.94983154E-09,  7.98722875E-12, -2.66367642E+04,
                       2.34163222E+01]),
                NASA([974.03, 5000.00],
                     [ 1.82092527E+01,  2.15568599E-02, -7.40867467E-06,
                       1.31428529E-09, -9.25901496E-14, -3.13441160E+04,
                      -6.86469693E+01])))

species(name='C4H6O2(31)',
        atoms='C:4 H:6 O:2',
        thermo=(NASA([10.00, 698.53],
                     [ 3.72473000E+00,  2.42425000E-02,  3.27052000E-05,
                      -6.74821000E-08,  3.30848000E-11, -4.74730000E+04,
                       1.05444000E+01]),
                NASA([698.53, 3000.00],
                     [ 2.59017000E+00,  4.06431000E-02, -2.37799000E-05,
                       6.72337000E-09, -7.37125000E-13, -4.75561000E+04,
                       1.38814000E+01])))

species(name='HCO(32)',
        atoms='C:1 H:1 O:1',
        thermo=(NASA([100.00, 1112.12],
                     [ 4.05936001E+00, -1.73841827E-03,  9.14965735E-06,
                      -8.01113041E-09,  2.25730008E-12,  3.84377635E+03,
                       3.32451171E+00]),
                NASA([1112.12, 5000.00],
                     [ 3.05138798E+00,  4.11702171E-03, -1.75584045E-06,
                       3.29297301E-10, -2.29169528E-14,  3.93006764E+03,
                       7.67449462E+00])))

species(name='C3H5-A(33)',
        atoms='C:3 H:5',
        thermo=(NASA([10.00, 529.04],
                     [ 4.11818000E+00, -1.09469000E-02,  1.30745000E-04,
                      -2.29912000E-07,  1.33770000E-10,  1.69677000E+04,
                       6.74192000E+00]),
                NASA([529.04, 3000.00],
                     [ 9.40665000E-01,  2.69581000E-02, -1.60823000E-05,
                       4.70470000E-09, -5.34618000E-13,  1.71096000E+04,
                       1.82127000E+01])))

species(name='S(34)',
        atoms='C:7 H:13 O:2',
        thermo=(NASA([10.00, 422.91],
                     [ 3.05026000E+00,  9.70110000E-02, -2.36386000E-04,
                       5.28054000E-07, -4.35060000E-10, -4.45245000E+04,
                       1.52448000E+01]),
                NASA([422.91, 3000.00],
                     [ 3.12072000E-01,  8.36472000E-02, -4.97310000E-05,
                       1.42979000E-08, -1.59317000E-12, -4.39418000E+04,
                       3.02497000E+01])))

species(name='C3H5(35)',
        atoms='C:3 H:5',
        thermo=(NASA([100.00, 937.44],
                     [ 3.52409511E+00, -3.09059408E-03,  7.19138652E-05,
                      -9.14787630E-08,  3.49768991E-11,  3.37825437E+04,
                       9.37900903E+00]),
                NASA([937.44, 5000.00],
                     [ 9.02708622E+00,  8.13417020E-03, -1.57933534E-06,
                       2.78497606E-10, -2.51209920E-14,  3.12258349E+04,
                      -2.49478793E+01])))

species(name='C4H8-1(36)',
        atoms='C:4 H:8',
        thermo=(NASA([100.00, 1007.28],
                     [ 2.58773847E+00,  2.32776847E-02,  1.93416315E-05,
                      -3.55501500E-08,  1.36908211E-11, -1.91872966E+03,
                       1.45750281E+01]),
                NASA([1007.28, 5000.00],
                     [ 7.20513194E+00,  2.36362240E-02, -9.03153894E-06,
                       1.65393577E-09, -1.16020014E-13, -3.79732256E+03,
                      -1.24424018E+01])))

species(name='C4H8(37)',
        atoms='C:4 H:8',
        thermo=(NASA([100.00, 1802.43],
                     [ 2.23551296E+00,  3.62128062E-02, -1.62669516E-05,
                       2.77197170E-09, -6.63883096E-14,  3.42663130E+04,
                       2.52570487E+01]),
                NASA([1802.43, 5000.00],
                     [ 1.05025207E+01,  2.26352649E-02, -8.93626772E-06,
                       1.52847153E-09, -9.75150615E-14,  3.05115405E+04,
                      -2.16457350E+01])))

species(name='C3H6(38)',
        atoms='C:3 H:6',
        thermo=(NASA([100.00, 1330.25],
                     [ 2.92362992E+00,  2.10869657E-02, -1.82398951E-06,
                      -5.35947224E-09,  1.86094476E-12,  3.71014626E+04,
                       1.98374456E+01]),
                NASA([1330.25, 5000.00],
                     [ 5.20768877E+00,  2.05521550E-02, -8.36239795E-06,
                       1.49634165E-09, -1.00128183E-13,  3.59334376E+04,
                       6.06019311E+00])))

species(name='C5H9(39)',
        atoms='C:5 H:9',
        thermo=(NASA([200.00, 1391.00],
                     [ 2.07677000E-01,  4.96049000E-02, -3.00622000E-05,
                       9.19962000E-09, -1.13246000E-12,  2.01252000E+04,
                       2.85856000E+01]),
                NASA([1391.00, 5000.00],
                     [ 1.37335000E+01,  2.07003000E-02, -7.06963000E-06,
                       1.09639000E-09, -6.35591000E-14,  1.51176000E+04,
                      -4.50795000E+01])))

species(name='C2H5O(40)',
        atoms='C:2 H:5 O:1',
        thermo=(NASA([100.00, 1075.82],
                     [ 3.13416863E+00,  1.54298986E-02,  5.47053521E-06,
                      -1.32607345E-08,  4.93293012E-12, -3.18287861E+03,
                       1.10477545E+01]),
                NASA([1075.82, 5000.00],
                     [ 5.34724634E+00,  1.54987653E-02, -6.19436586E-06,
                       1.13688038E-09, -7.87694643E-14, -4.13920984E+03,
                      -2.02239689E+00])))

species(name='C4H6O2(41)',
        atoms='C:4 H:6 O:2',
        thermo=(NASA([10.00, 892.75],
                     [ 3.78888000E+00,  2.48926000E-02,  2.30647000E-05,
                      -4.45516000E-08,  1.83497000E-11, -4.53051000E+04,
                       1.19244000E+01]),
                NASA([892.75, 3000.00],
                     [ 4.23720000E+00,  3.68517000E-02, -2.04974000E-05,
                       5.50383000E-09, -5.75129000E-13, -4.59418000E+04,
                       6.69493000E+00])))

species(name='C4H6O2(42)',
        atoms='C:4 H:6 O:2',
        thermo=(NASA([100.00, 1646.19],
                     [ 2.22105117E+00,  4.41534293E-02, -2.63965344E-05,
                       7.69481717E-09, -9.53136234E-13, -7.43846053E+03,
                       2.94837149E+01]),
                NASA([1646.19, 5000.00],
                     [ 7.91954338E+00,  3.03069312E-02, -1.37796764E-05,
                       2.58529888E-09, -1.77175099E-13, -9.31462087E+03,
                      -8.48707022E-01])))

species(name='C5H9O2(43)',
        atoms='C:5 H:9 O:2',
        thermo=(NASA([100.00, 1901.29],
                     [ 9.32923996E-01,  5.90428181E-02, -3.61409554E-05,
                       1.08068773E-08, -1.29910424E-12, -3.90562881E+04,
                       2.77528413E+01]),
                NASA([1901.29, 5000.00],
                     [ 1.63619128E+01,  2.65830050E-02, -1.05323556E-05,
                       1.82756384E-09, -1.18425612E-13, -4.49233261E+04,
                      -5.65968487E+01])))

species(name='C4H8-2(44)',
        atoms='C:4 H:8',
        thermo=(NASA([100.00, 1157.78],
                     [ 2.51999621E+00,  2.76811355E-02,  9.44248758E-07,
                      -1.25014550E-08,  4.67165352E-12, -3.34374824E+03,
                       1.30195154E+01]),
                NASA([1157.78, 5000.00],
                     [ 6.04215810E+00,  2.60073942E-02, -1.04844255E-05,
                       1.90882943E-09, -1.30602142E-13, -4.86272035E+03,
                      -7.52658774E+00])))

species(name='C6H9O3(45)',
        atoms='C:6 H:9 O:3',
        thermo=(NASA([100.00, 495.75],
                     [ 1.25767644E+00,  7.04562669E-02, -3.36663558E-05,
                      -4.19643419E-08,  5.25722624E-11, -5.14826732E+04,
                       3.08679102E+01]),
                NASA([495.75, 5000.00],
                     [ 5.13184842E+00,  5.34599277E-02, -2.53955077E-05,
                       4.94734224E-09, -3.50607952E-13, -5.20420626E+04,
                       1.31280295E+01])))

species(name='S(46)',
        atoms='C:6 H:10 O:2',
        thermo=(NASA([100.00, 2192.59],
                     [ 1.31240831E+00,  6.25641757E-02, -3.40836283E-05,
                       8.52360215E-09, -8.45320600E-13, -4.45451262E+04,
                       2.79265572E+01]),
                NASA([2192.59, 5000.00],
                     [ 1.69483867E+01,  3.40394096E-02, -1.45694445E-05,
                       2.59030401E-09, -1.68812158E-13, -5.14018714E+04,
                      -5.97837475E+01])))

species(name='S(47)',
        atoms='C:6 H:10 O:2',
        thermo=(NASA([100.00, 762.37],
                     [ 6.04399377E-01,  8.21323828E-02, -9.56922567E-05,
                       8.31722657E-08, -3.19024753E-11, -8.33440964E+03,
                       3.93131848E+01]),
                NASA([762.37, 5000.00],
                     [ 3.15068748E+00,  5.81412287E-02, -2.75710138E-05,
                       5.31102689E-09, -3.71636096E-13, -8.41370084E+03,
                       2.97459354E+01])))

species(name='C3H6(48)',
        atoms='C:3 H:6',
        thermo=(NASA([100.00, 1116.00],
                     [ 3.29288038E+00,  1.18088511E-02,  1.75485324E-05,
                      -2.23823251E-08,  7.15738385E-12,  3.35529033E+04,
                       1.28603699E+01]),
                NASA([1116.00, 5000.00],
                     [ 3.86206274E+00,  2.03749170E-02, -8.22048756E-06,
                       1.52713035E-09, -1.06321791E-13,  3.27653836E+04,
                       7.09280247E+00])))

species(name='DC5H11(49)',
        atoms='C:5 H:11',
        thermo=(NASA([200.00, 1397.00],
                     [-1.05354000E+00,  6.19730000E-02, -4.24711000E-05,
                       1.55774000E-08, -2.40104000E-12,  4.23634000E+03,
                       3.24911000E+01]),
                NASA([1397.00, 5000.00],
                     [ 1.53440000E+01,  2.38466000E-02, -8.11897000E-06,
                       1.25635000E-09, -7.27147000E-14, -1.52768000E+03,
                      -5.57218000E+01])))

species(name='C2H5CO(50)',
        atoms='C:3 H:5 O:1',
        thermo=(NASA([100.00, 1673.19],
                     [ 2.91312811E+00,  2.25012059E-02, -8.59334140E-06,
                       4.80375986E-10,  2.48726986E-13, -5.27424317E+03,
                       1.46550003E+01]),
                NASA([1673.19, 5000.00],
                     [ 7.46317741E+00,  1.58510371E-02, -6.42132950E-06,
                       1.12497106E-09, -7.32042130E-14, -7.38860282E+03,
                      -1.14067133E+01])))

species(name='S(51)',
        atoms='C:6 H:10 O:2',
        thermo=(NASA([100.00, 1335.93],
                     [ 6.65757298E-01,  6.39889188E-02, -3.15993706E-05,
                       3.78777716E-09,  9.49798228E-13, -4.59685910E+04,
                       3.07928187E+01]),
                NASA([1335.93, 5000.00],
                     [ 1.37853112E+01,  3.72591706E-02, -1.56808216E-05,
                       2.87723679E-09, -1.95976616E-13, -5.05940759E+04,
                      -4.04935238E+01])))

species(name='S(52)',
        atoms='C:6 H:10 O:2',
        thermo=(NASA([100.00, 1219.68],
                     [ 1.19641220E+00,  6.94585825E-02, -4.52159048E-05,
                       1.61455653E-08, -2.68452054E-12, -9.81442085E+03,
                       3.76884986E+01]),
                NASA([1219.68, 5000.00],
                     [ 6.41902192E+00,  5.23310700E-02, -2.41523203E-05,
                       4.63258539E-09, -3.24724424E-13, -1.10884250E+04,
                       1.14551867E+01])))

species(name='C2H4O2(53)',
        atoms='C:2 H:4 O:2',
        thermo=(NASA([10.00, 498.37],
                     [ 3.97990000E+00,  1.05600000E-03,  6.79712000E-05,
                      -1.09979000E-07,  5.72063000E-11, -5.48551000E+04,
                       9.20608000E+00]),
                NASA([498.37, 3000.00],
                     [ 4.16786000E-01,  2.96560000E-02, -1.81149000E-05,