units(length='cm', time='s', quantity='mol', act_energy='kcal/mol')

ideal_gas(name='gas',
          elements="H D T C Ci O Oi N Ne Ar He Si S F Cl Br I X",
          species="""N2                Ne                2BF(1)
                     2BF_radical_0(2)  2BF_peroxyl_0(3)  2BF_radical_1(4)
                     2BF_peroxyl_1(5)  2BF_radical_2(6)  2BF_peroxyl_2(7)
                     2BF_radical_3(8)  2BF_peroxyl_3(9)  C8H11O(10)
                     C8H11O3(11)       C8H11O(12)        C8H11O3(13)
                     C8H11O(14)        C8H11O3(15)       O2(16)
                     hydroperoxyl(17)  OH_rad(18)        H_rad(19)
                     PB8(20)           PB9(21)           PB10(22)
                     H2(23)            O(26)             H2O(27)
                     H2O2(28)          R1_44(40)         P1_44(41)
                     P3-2(60)          CH2CHO(73)        CH2CHCHO(84)
                     CH2O(86)          hcch(101)         C2H4(103)
                     CH3CO(104)        CH2CO(107)        CO(108)
                     CH3O2(122)        C2H5(127)         C2H5O2(128)
                     CHCHO(145)        C3H3(149)         NC3H7(175)
                     IC3H7(176)        C3H6(177)         NC3H7O2(178)
                     NC3H7O2H(179)     IC3H7O2(180)      C4H5-N(188)
                     C3H6OOH1-3(195)   NC3H7O(261)       PC4H9(264)
                     C4H8-1(270)       CdCCdCCJdO(406)   c-C4H5(852)
                     cC6H8-13(1049)    C6H8(1196)        C8H12O(1300)
                     C6H7O(1325)       C5H5O(1326)       C8H12O(1331)
                     C8H12O(1334)      C8H13O(1335)      C8H12O(1339)
                     C8H11O(1346)      C5H5O(1347)       C#CCCCC(1348)
                     C8H12O(1354)      C8H12O(1363)      C8H10O(1374)
                     C8H10O(1397)      C8H10O(1422)      C7H8O(1423)
                     C8H11O(1433)      C8H11O(1442)      C6H6O(1445)
                     C8H12O(1531)      C8H13O(1572)      C8H13O(1583)
                     C5H5O3(1619)      C5H5O3(1620)      C5H5O3(1621)
                     C5H6O3(1629)      C5H6O3(1630)      C5H5O2(1649)
                     C5H5O3(1665)      C8H11O(1730)      C8H12O(1732)
                     C5H5O3(1765)      C6H7O(1777)       C6H7O(1785)
                     C6H7O(1786)       C6H8O(1809)       C8H12O(1825)
                     C7H8O(1844)       C8H10O(1884)      C8H10O(1890)
                     C6H7O(1912)       C6H8O(1955)       C6H7O3(1957)
                     C6H7O3(1959)      C5H5O(2020)       C5H5O(2021)
                     C6H11O(2185)      C8H13O(2200)      C6H7O3(2382)
                     [CH2][O](2650)    C8H13O2(2655)     C8H13O2(2658)
                     C8H13O2(2692)     C2H2O(2693)       C6H6O(2697)
                     C6H10(2733)       C8H13O2(2841)     C8H12O2(2847)
                     C8H12O2(2871)     C6H11O(3037)      C5H5O3(3170)
                     C8H12O2(3189)     C8H12O2(3210)     C5H5O2(3323)
                     C7H12O(3335)      C4H5(3388)        C4H5(3408)
                     C6H8O(3457)       C6H8O(3458)       C8H12O2(3461)
                     C8H11O2(3480)     C8H12O2(3499)     C8H12O2(3525)
                     C8H12O2(3585)     C8H12O2(3601)     C8H11O(3608)
                     C8H11O(3731)      C7H8O(3872)       C4H5O2(4012)
                     C8H12O2(4192)     C8H10O(4207)      C[C]CC(4509)
                     C8H10O(4557)      C6H8O(4568)       C6H8O(4569)
                     C6H8O(4572)       C7H8O(4707)       C7H8O(4713)
                     C7H8O(4796)       C7H8O(4797)       C7H8O(4800)
                     C6H8O(5069)       C6H8O(5080)       C8H13O(5152)
                     C8H10O(5215)      C8H10O(5230)      C8H10O(5314)
                     C8H10O(5316)      C6H8O(5930)       C5H5O5(5963)
                     C5H4O4(5985)      C6H8O(6376)       C3H5O(6833)
                     C6H8(6849)        C5H3O3(7177)      C6H8O(7194)
                     C5H3O3(7265)      C4H3O2(7266)      C5H3O5(7308)
                     C4H3O4(7310)      C8H11O(7414)      C7H8O(7420)
                     C4H5O2(7484)      C6H8O(7508)       C4H3O4(7617)
                     C8H10O(8037)      C8H10O(8046)      C8H10O(8231)
                     C8H10O(8367)      C8H11O(8514)      C6H8O(8619)
                     C6H8O(8620)       C5H6O3(8639)      C5H6O3(8642)
                     C6H8O(8883)       C8H13O2(10272)    C7H13O(10279)
                     C4H6O(10309)      C4H5O(10382)      C7H8O(13162)
                     C7H8O3(13179)     C8H11O(13262)     C7H8O(13282)
                     C6H8(14272)       C5H6O3(14455)     C5H5O2(14481)
                     C5H5O2(14491)     C5H5O2(14579)     C4H5O(14585)
                     C6H6O(14760)      C5H5O4(14916)     C6H6O(15175)
                     C6H6O(15289)      C5H5O4(16142)     C5H5O2(16623)
                     C5H5O4(16667)     C4H5O3(17401)     C4H5O3(17405)
                     C4H4O3(18324)     C4H5O5(18665)     C4H4O3(18964)
                     C4H4O3(18981)     C4H4O3(19091)""",
          reactions='all',
          transport='Mix',
          initial_state=state(temperature=300.0, pressure=OneAtm))

#-------------------------------------------------------------------------------
# Element data
#-------------------------------------------------------------------------------

element(symbol='Ci', atomic_mass=13.003)
element(symbol='D', atomic_mass=2.014)
element(symbol='Oi', atomic_mass=17.999)
element(symbol='T', atomic_mass=3.016)
element(symbol='X', atomic_mass=195.083)
#-------------------------------------------------------------------------------
# Species data
#-------------------------------------------------------------------------------

species(name='N2',
        atoms='N:2',
        thermo=(NASA([200.00, 1000.00],
                     [ 3.53101000E+00, -1.23661000E-04, -5.02999000E-07,
                       2.43531000E-09, -1.40881000E-12, -1.04698000E+03,
                       2.96747000E+00]),
                NASA([1000.00, 6000.00],
                     [ 2.95258000E+00,  1.39690000E-03, -4.92632000E-07,
                       7.86010000E-11, -4.60755000E-15, -9.23949000E+02,
                       5.87189000E+00])),
        transport=gas_transport(geom='linear',
                                diam=3.461,
                                well_depth=322.846,
                                dipole=1.781,
                                rot_relax=1.0))

species(name='Ne',
        atoms='Ne:1',
        thermo=(NASA([200.00, 1000.00],
                     [ 2.50000000E+00,  0.00000000E+00,  0.00000000E+00,
                       0.00000000E+00,  0.00000000E+00, -7.45375000E+02,
                       3.35532000E+00]),
                NASA([1000.00, 6000.00],
                     [ 2.50000000E+00,  0.00000000E+00,  0.00000000E+00,
                       0.00000000E+00,  0.00000000E+00, -7.45375000E+02,
                       3.35532000E+00])),
        transport=gas_transport(geom='atom',
                                diam=3.758,
                                well_depth=148.6))

species(name='2BF(1)',
        atoms='C:8 H:12 O:1',
        thermo=(NASA([10.00, 1008.11],
                     [ 3.90496000E+00,  3.76613000E-02,  5.83018000E-05,
                      -8.65530000E-08,  3.11968000E-11, -2.04519000E+04,
                       1.34074000E+01]),
                NASA([1008.11, 3000.00],
                     [ 5.70450000E+00,  6.51379000E-02, -3.40890000E-05,
                       8.60736000E-09, -8.48922000E-13, -2.25738000E+04,
                      -4.01328000E+00])),
        transport=gas_transport(geom='nonlinear',
                                diam=6.869,
                                well_depth=486.501))

species(name='2BF_radical_0(2)',
        atoms='C:8 H:11 O:1',
        thermo=(NASA([10.00, 993.32],
                     [ 3.76431000E+00,  4.40585000E-02,  3.82022000E-05,
                      -6.92841000E-08,  2.62859000E-11,  4.31615000E+03,
                       1.42819000E+01]),
                NASA([993.32, 3000.00],
                     [ 6.84107000E+00,  6.13580000E-02, -3.27548000E-05,
                       8.42841000E-09, -8.45848000E-13,  2.24020000E+03,
                      -7.91383000E+00])),
        transport=gas_transport(geom='nonlinear',
                                diam=6.869,
                                well_depth=486.501))

species(name='2BF_peroxyl_0(3)',
        atoms='C:8 H:11 O:3',
        thermo=(NASA([10.00, 377.58],
                     [ 2.65010000E+00,  1.49705000E-01, -6.65416000E-04,
                       1.73271000E-06, -1.56018000E-09, -1.41115000E+04,
                       1.75631000E+01]),
                NASA([377.58, 3000.00],
                     [ 4.46138000E-02,  8.65149000E-02, -5.37043000E-05,
                       1.58421000E-08, -1.79207000E-12, -1.32676000E+04,
                       3.61658000E+01])),
        transport=gas_transport(geom='nonlinear',
                                diam=7.733,
                                well_depth=565.519))

species(name='2BF_radical_1(4)',
        atoms='C:8 H:11 O:1',
        thermo=(NASA([10.00, 1168.56],
                     [ 3.96059000E+00,  4.53369000E-02,  2.23246000E-05,
                      -4.41223000E-08,  1.51265000E-11,  2.86555000E+03,
                       1.39800000E+01]),
                NASA([1168.56, 3000.00],
                     [ 1.26148000E+01,  4.79503000E-02, -2.24101000E-05,
                       5.00658000E-09, -4.34672000E-13, -1.35806000E+03,
                      -3.85373000E+01])),
        transport=gas_transport(geom='nonlinear',
                                diam=6.869,
                                well_depth=486.501))

species(name='2BF_peroxyl_1(5)',
        atoms='C:8 H:11 O:3',
        thermo=(NASA([10.00, 1510.64],
                     [ 3.54086000E+00,  8.01163000E-02, -4.71942000E-05,
                       1.16680000E-08, -7.18510000E-13, -1.69306000E+04,
                       1.60338000E+01]),
                NASA([1510.64, 3000.00],
                     [ 2.81431000E+01,  2.90540000E-02, -1.04740000E-05,
                       1.63348000E-09, -7.90620000E-14, -2.59704000E+04,
                      -1.18125000E+02])),
        transport=gas_transport(geom='nonlinear',
                                diam=7.765,
                                well_depth=568.079))

species(name='2BF_radical_2(6)',
        atoms='C:8 H:11 O:1',
        thermo=(NASA([10.00, 1103.56],
                     [ 3.85377000E+00,  4.62583000E-02,  2.50925000E-05,
                      -5.00500000E-08,  1.78835000E-11,  3.54055000E+03,
                       1.49892000E+01]),
                NASA([1103.56, 3000.00],
                     [ 1.01987000E+01,  5.38551000E-02, -2.68185000E-05,
                       6.43151000E-09, -6.02857000E-13,  2.77152000E+02,
                      -2.46875000E+01])),
        transport=gas_transport(geom='nonlinear',
                                diam=6.869,
                                well_depth=486.501))

species(name='2BF_peroxyl_2(7)',
        atoms='C:8 H:11 O:3',
        thermo=(NASA([10.00, 389.32],
                     [ 3.09608000E+00,  9.20506000E-02, -1.61511000E-04,
                       3.37721000E-07, -2.96316000E-10, -1.64643000E+04,
                       1.68378000E+01]),
                NASA([389.32, 3000.00],
                     [ 1.76811000E+00,  8.49098000E-02, -5.39190000E-05,
                       1.63570000E-08, -1.90172000E-12, -1.62034000E+04,
                       2.40148000E+01])),
        transport=gas_transport(geom='nonlinear',
                                diam=7.765,
                                well_depth=568.079))

species(name='2BF_radical_3(8)',
        atoms='C:8 H:11 O:1',
        thermo=(NASA([10.00, 902.46],
                     [ 3.75592000E+00,  3.83403000E-02,  6.05500000E-05,
                      -9.91582000E-08,  3.93984000E-11, -4.26546000E+03,
                       1.44493000E+01]),
                NASA([902.46, 3000.00],
                     [ 4.00008000E+00,  6.72498000E-02, -3.73508000E-05,
                       9.98813000E-09, -1.03859000E-12, -5.53085000E+03,
                       6.52983000E+00])),
        transport=gas_transport(geom='nonlinear',
                                diam=6.869,
                                well_depth=486.501))

species(name='2BF_peroxyl_3(9)',
        atoms='C:8 H:11 O:3',
        thermo=(NASA([10.00, 386.56],
                     [ 3.10992000E+00,  9.19460000E-02, -1.82184000E-04,
                       4.20009000E-07, -3.81631000E-10, -1.51936000E+04,
                       1.55918000E+01]),
                NASA([386.56, 3000.00],
                     [ 9.80000000E-01,  8.65417000E-02, -5.47219000E-05,
                       1.65303000E-08, -1.91478000E-12, -1.48238000E+04,
                       2.64952000E+01])),
        transport=gas_transport(geom='nonlinear',
                                diam=7.765,
                                well_depth=568.079))

species(name='C8H11O(10)',
        atoms='C:8 H:11 O:1',
        thermo=(NASA([10.00, 1043.84],
                     [ 3.88756000E+00,  3.99830000E-02,  4.30535000E-05,
                      -6.88490000E-08,  2.46310000E-11,  1.39474000E+04,
                       1.41207000E+01]),
                NASA([1043.84, 3000.00],
                     [ 7.35208000E+00,  5.88699000E-02, -3.03055000E-05,
                       7.52131000E-09, -7.29411000E-13,  1.14719000E+04,
                      -1.11355000E+01])),
        transport=gas_transport(geom='nonlinear',
                                diam=6.869,
                                well_depth=486.501))

species(name='C8H11O3(11)',
        atoms='C:8 H:11 O:3',
        thermo=(NASA([10.00, 393.24],
                     [ 2.91218000E+00,  1.13589000E-01, -3.25355000E-04,
                       7.48250000E-07, -6.38926000E-10, -1.27550000E+04,
                       1.68069000E+01]),
                NASA([393.24, 3000.00],
                     [ 1.76073000E+00,  8.36300000E-02, -5.21181000E-05,
                       1.55376000E-08, -1.77993000E-12, -1.23422000E+04,
                       2.53840000E+01])),
        transport=gas_transport(geom='nonlinear',
                                diam=7.717,
                                well_depth=570.133))

species(name='C8H11O(12)',
        atoms='C:8 H:11 O:1',
        thermo=(NASA([10.00, 393.64],
                     [ 3.25593000E+00,  7.98923000E-02, -2.24018000E-04,
                       5.97901000E-07, -5.53339000E-10,  1.37433000E+04,
                       1.50370000E+01]),
                NASA([393.64, 3000.00],
                     [-8.63430000E-01,  7.76301000E-02, -4.72707000E-05,
                       1.38256000E-08, -1.55956000E-12,  1.44095000E+04,
                       3.54119000E+01])),
        transport=gas_transport(geom='nonlinear',
                                diam=6.869,
                                well_depth=486.501))

species(name='C8H11O3(13)',
        atoms='C:8 H:11 O:3',
        thermo=(NASA([10.00, 384.69],
                     [ 2.93521000E+00,  1.12400000E-01, -3.30529000E-04,
                       7.92494000E-07, -6.99163000E-10, -1.24528000E+04,
                       1.65300000E+01]),
                NASA([384.69, 3000.00],
                     [ 1.32006000E+00,  8.52985000E-02, -5.36961000E-05,
                       1.61254000E-08, -1.85712000E-12, -1.20037000E+04,
                       2.70007000E+01])),
        transport=gas_transport(geom='nonlinear',
                                diam=7.717,
                                well_depth=570.133))

species(name='C8H11O(14)',
        atoms='C:8 H:11 O:1',
        thermo=(NASA([10.00, 1033.90],
                     [ 3.86146000E+00,  4.05851000E-02,  4.23661000E-05,
                      -6.90037000E-08,  2.49309000E-11,  1.37653000E+04,
                       1.40723000E+01]),
                NASA([1033.90, 3000.00],
                     [ 7.11559000E+00,  5.95290000E-02, -3.08681000E-05,
                       7.71855000E-09, -7.54051000E-13,  1.14070000E+04,
                      -9.88611000E+00])),
        transport=gas_transport(geom='nonlinear',
                                diam=6.869,
                                well_depth=486.501))

species(name='C8H11O3(15)',
        atoms='C:8 H:11 O:3',
        thermo=(NASA([10.00, 393.93],
                     [ 2.89304000E+00,  1.14317000E-01, -3.06103000E-04,
                       6.70796000E-07, -5.60334000E-10, -1.28397000E+04,
                       1.65658000E+01]),
                NASA([393.93, 3000.00],
                     [ 2.59759000E+00,  8.24234000E-02, -5.17904000E-05,
                       1.55521000E-08, -1.79237000E-12, -1.25456000E+04,
                       2.11523000E+01])),
        transport=gas_transport(geom='nonlinear',
                                diam=7.717,
                                well_depth=570.133))

species(name='O2(16)',
        atoms='O:2',
        thermo=(NASA([10.00, 605.77],
                     [ 3.50744000E+00, -4.44117000E-04,  1.46095000E-06,
                       1.61537000E-09, -2.32265000E-12, -1.23288000E+03,
                       4.72185000E+00]),
                NASA([605.77, 3000.00],
                     [ 2.87463000E+00,  2.17913000E-03, -1.18345000E-06,
                       2.87241000E-10, -2.53743000E-14, -1.12768000E+03,
                       7.69314000E+00])),
        transport=gas_transport(geom='linear',
                                diam=3.467,
                                well_depth=106.7))

species(name='hydroperoxyl(17)',
        atoms='H:1 O:2',
        thermo=(NASA([10.00, 890.74],
                     [ 4.02887000E+00, -1.75807000E-03,  1.08796000E-05,
                      -1.13928000E-08,  3.90654000E-12,  2.36689000E+01,
                       4.69305000E+00]),
                NASA([890.74, 3000.00],
                     [ 3.06580000E+00,  4.28610000E-03, -2.19419000E-06,
                       5.59192000E-10, -5.61623000E-14,  1.27028000E+02,
                       8.84499000E+00])),
        transport=gas_transport(geom='nonlinear',
                                diam=3.458,
                                well_depth=107.4,
                                rot_relax=1.0))

species(name='OH_rad(18)',
        atoms='H:1 O:1',
        thermo=(NASA([100.00, 1145.76],
                     [ 3.51456839E+00,  2.92734266E-05, -5.32150589E-07,
                       1.01947520E-09, -3.85939401E-13,  3.41425418E+03,
                       2.10434756E+00]),
                NASA([1145.76, 5000.00],
                     [ 3.07193724E+00,  6.04019842E-04, -1.39805946E-08,
                      -2.13440809E-11,  2.48061363E-15,  3.57938792E+03,
                       4.57801470E+00])),
        transport=gas_transport(geom='linear',
                                diam=2.75,
                                well_depth=80.0))

species(name='H_rad(19)',
        atoms='H:1',
        thermo=(NASA([10.00, 1363.47],
                     [ 2.50000000E+00, -1.52660000E-15,  6.32260000E-18,
                      -7.59355000E-21,  2.67359000E-24,  2.54726000E+04,
                      -4.61279000E-01]),
                NASA([1363.47, 3000.00],
                     [ 2.50000000E+00, -1.01797000E-13,  8.37580000E-17,
                      -2.93808000E-20,  3.72101000E-24,  2.54726000E+04,
                      -4.61279000E-01])),
        transport=gas_transport(geom='atom',
                                diam=2.05,
                                well_depth=145.0))

species(name='PB8(20)',
        atoms='C:8 H:13 O:1',
        thermo=(NASA([10.00, 1165.10],
                     [ 3.46160000E+00,  6.30024000E-02, -1.00978000E-05,
                      -1.82735000E-08,  7.88527000E-12, -1.06424000E+04,
                       1.36226000E+01]),
                NASA([1165.10, 3000.00],
                     [ 1.10350000E+01,  5.69675000E-02, -2.80338000E-05,
                       6.69814000E-09, -6.29114000E-13, -1.37623000E+04,
                      -2.98877000E+01])),
        transport=gas_transport(geom='nonlinear',
                                diam=7.0,
                                well_depth=476.75))

species(name='PB9(21)',
        atoms='C:8 H:13 O:1',
        thermo=(NASA([10.00, 1070.71],
                     [ 3.87624000E+00,  4.43522000E-02,  4.37090000E-05,
                      -6.96797000E-08,  2.44172000E-11, -4.71842000E+03,
                       1.40047000E+01]),
                NASA([1070.71, 3000.00],
                     [ 7.94468000E+00,  6.38405000E-02, -3.21874000E-05,
                       7.83327000E-09, -7.45959000E-13, -7.57796000E+03,
                      -1.51862000E+01])),
        transport=gas_transport(geom='nonlinear',
                                diam=7.0,
                                well_depth=476.75))

species(name='PB10(22)',
        atoms='C:8 H:13 O:1',
        thermo=(NASA([10.00, 1017.57],
                     [ 3.77383000E+00,  4.50342000E-02,  4.54907000E-05,
                      -7.49943000E-08,  2.73338000E-11, -5.27705000E+03,
                       1.41852000E+01]),
                NASA([1017.57, 3000.00],
                     [ 6.09666000E+00,  6.79147000E-02, -3.54251000E-05,
                       8.93323000E-09, -8.81078000E-13, -7.40710000E+03,
                      -5.20510000E+00])),
        transport=gas_transport(geom='nonlinear',
                                diam=7.087,
                                well_depth=485.602))

species(name='H2(23)',
        atoms='H:2',
        thermo=(NASA([10.00, 623.74],
                     [ 3.49864000E+00,  7.97066000E-05, -2.54524000E-07,
                       3.55708000E-11,  2.69043000E-13, -1.06140000E+03,
                      -4.27706000E+00]),
                NASA([623.74, 3000.00],
                     [ 3.68937000E+00, -7.80622000E-04,  9.41893000E-07,
                      -3.10580000E-10,  3.39829000E-14, -1.09225000E+03,
                      -5.16378000E+00])),
        transport=gas_transport(geom='linear',
                                diam=2.833,
                                well_depth=59.7))

species(name='O(26)',
        atoms='O:1',
        thermo=(NASA([100.00, 4879.80],
                     [ 2.50000000E+00, -3.01680531E-12,  3.74582141E-15,
                      -1.50856878E-18,  1.86626471E-22,  2.92302441E+04,
                       5.12616427E+00]),
                NASA([4879.80, 5000.00],
                     [ 4.28461071E+00, -1.45494649E-03,  4.44804306E-07,
                      -6.04359642E-11,  3.07921551E-15,  2.74791187E+04,
                      -6.32199355E+00])),
        transport=gas_transport(geom='atom',
                                diam=2.75,
                                well_depth=80.0))

species(name='H2O(27)',
        atoms='H:2 O:1',
        thermo=(NASA([100.00, 1130.25],
                     [ 4.05763677E+00, -7.87946473E-04,  2.90880969E-06,
                      -1.47523008E-09,  2.12859005E-13, -3.02815867E+04,
                      -3.11367464E-01]),
                NASA([1130.25, 5000.00],
                     [ 2.84324402E+00,  2.75109591E-03, -7.81037318E-07,
                       1.07244983E-10, -5.79403178E-15, -2.99586099E+04,
                       5.91045648E+00])),
        transport=gas_transport(geom='nonlinear',
                                diam=2.641,
                                well_depth=809.102,
                                polar=1.76,
                                rot_relax=4.0))

species(name='H2O2(28)',
        atoms='H:2 O:2',
        thermo=(NASA([10.00, 507.22],
                     [ 3.99087000E+00,  5.58638000E-04,  2.05158000E-05,
                      -3.76944000E-08,  2.23204000E-11, -1.80430000E+04,
                       4.57614000E+00]),
                NASA([507.22, 3000.00],
                     [ 3.38037000E+00,  7.10001000E-03, -3.93604000E-06,
                       1.15634000E-09, -1.36891000E-13, -1.80033000E+04,
                       6.88803000E+00])),
        transport=gas_transport(geom='nonlinear',
                                diam=4.196,
                                well_depth=289.3))

species(name='R1_44(40)',
        atoms='C:1 H:3',
        thermo=(NASA([100.00, 697.62],
                     [ 3.96043195E+00,  5.92928228E-04,  8.78579669E-06,
                      -9.88036521E-09,  3.63237415E-12,  1.64218817E+04,
                       3.39862211E-01]),
                NASA([697.62, 5000.00],
                     [ 3.09511278E+00,  5.55429681E-03, -1.88158726E-06,
                       3.13334675E-10, -2.05194880E-14,  1.65426189E+04,
                       4.20297391E+00])),
        transport=gas_transport(geom='nonlinear',
                                diam=3.8,
                                well_depth=144.0))

species(name='P1_44(41)',
        atoms='C:1 H:4',
        thermo=(NASA([100.00, 1084.12],
                     [ 4.20541463E+00, -5.35556659E-03,  2.51123028E-05,
                      -2.13762551E-08,  5.97522768E-12, -1.01619433E+04,
                      -9.21277081E-01]),
                NASA([1084.12, 5000.00],
                     [ 9.08269242E-01,  1.14540800E-02, -4.57173500E-06,
                       8.29190911E-10, -5.66314272E-14, -9.71997598E+03,
                       1.39930745E+01])),
        transport=gas_transport(geom='nonlinear',
                                diam=3.746,
                                well_depth=141.4,
                                polar=2.6,
                                rot_relax=13.0))

species(name='P3-2(60)',
        atoms='C:4 H:4 O:1',
        thermo=(NASA([200.00, 1000.00],
                     [ 8.47469000E-01,  1.31774000E-02,  5.99736000E-05,
                      -9.71563000E-08,  4.22734000E-11, -5.36785000E+03,
                       2.14945000E+01]),
                NASA([1000.00, 6000.00],
                     [ 9.38935000E+00,  1.40291000E-02, -5.07755000E-06,
                       8.24137000E-10, -4.95320000E-14, -8.68242000E+03,
                      -2.79163000E+01])),
        transport=gas_transport(geom='nonlinear',
                                diam=5.633,
                                well_depth=415.48))

species(name='CH2CHO(73)',
        atoms='C:2 H:3 O:1',
        thermo=(NASA([100.00, 956.37],
                     [ 3.51486709E+00,  4.49290877E-03,  2.70701043E-05,
                      -3.72717367E-08,  1.43008535E-11,  8.08796122E+02,
                       8.86080936E+00]),
                NASA([956.37, 5000.00],
                     [ 6.48044351E+00,  7.73042681E-03, -2.53955879E-06,
                       4.69263847E-10, -3.50507282E-14, -4.73736868E+02,
                      -9.05372685E+00])),
        transport=gas_transport(geom='nonlinear',
                                diam=3.97,
                                well_depth=436.0,
                                rot_relax=2.0))

species(name='CH2CHCHO(84)',
        atoms='C:3 H:4 O:1',
        thermo=(NASA([100.00, 1025.08],
                     [ 2.94493878E+00,  1.75279708E-02,  8.67185298E-06,
                      -2.09295145E-08,  8.38205841E-12, -9.50047058E+03,
                       1.06674828E+01]),
                NASA([1025.08, 5000.00],
                     [ 7.26657113E+00,  1.39912594E-02, -5.65427980E-06,
                       1.07053308E-09, -7.65806678E-14, -1.10866549E+04,
                      -1.37042087E+01])),
        transport=gas_transport(geom='nonlinear',
                                diam=5.142,
                                well_depth=377.211))

species(name='CH2O(86)',
        atoms='C:1 H:2 O:1',
        thermo=(NASA([100.00, 1070.44],
                     [ 4.12927626E+00, -4.08399272E-03,  2.03228647E-05,
                      -1.83523380E-08,  5.37972022E-12, -1.44294639E+04,
                       3.22419098E+00]),
                NASA([1070.44, 5000.00],
                     [ 2.21173406E+00,  7.94264082E-03, -3.34192150E-06,
                       6.28469298E-10, -4.40429721E-14, -1.42974498E+04,
                       1.13048439E+01])),
        transport=gas_transport(geom='nonlinear',
                                diam=3.59,
                                well_depth=498.0,
                                rot_relax=2.0))

species(name='hcch(101)',
        atoms='C:2 H:2',
        thermo=(NASA([100.00, 962.80],
                     [ 3.11332852E+00,  6.02047394E-03,  5.33071880E-06,
                      -1.10298849E-08,  4.62884091E-12,  2.62179841E+04,
                       4.37935015E+00]),
                NASA([962.80, 5000.00],
                     [ 5.02074597E+00,  4.22475769E-03, -1.42003334E-06,
                       2.56112731E-10, -1.84551193E-14,  2.55666321E+04,
                      -6.22570892E+00])),
        transport=gas_transport(geom='linear',
                                diam=4.1,
                                well_depth=209.0,
                                rot_relax=2.5))

species(name='C2H4(103)',
        atoms='C:2 H:4',
        thermo=(NASA([100.00, 979.34],
                     [ 3.97473969E+00, -4.75872855E-03,  4.16794056E-05,
                      -4.51406211E-08,  1.54230735E-11,  4.91540645E+03,
                       3.62422416E+00]),
                NASA([979.34, 5000.00],
                     [ 3.55651733E+00,  1.10628981E-02, -4.17027865E-06,
                       7.85607582E-10, -5.70078126E-14,  4.32050194E+03,
                       2.17769407E+00])),
        transport=gas_transport(geom='nonlinear',
                                diam=3.971,
                                well_depth=280.8,
                                rot_relax=1.5))

species(name='CH3CO(104)',
        atoms='C:2 H:3 O:1',
        thermo=(NASA([100.00, 1011.57],
                     [ 3.63678365E+00,  4.50837192E-03,  1.80297416E-05,