ELEMENTS
C  H  O  N  AR HE 
END
SPECIES
BTHFX2            N2                H                 O2                O                 OH                H2                H2O               
AR                HE                HO2               H2O2              CO                CO2               HCO               C                 
CH                TXCH2             CH3               CH2O              HCCO              C2H               CH2CO             C2H2              
SXCH2             CH3OH             CH2OH             CH3O              CH4               CH3O2             C2H3              C2H4              
C2H5              HCCOH             CH2CHO            CH3CHO            H2C2              C2H5O             NXC3H7            C2H6              
C3H8              C3H6              C3H3              PXC3H4            AXC3H4            SXC3H5            NXC4H3            C2H3CHO           
AXC3H5            C2O               C4H4              C3H2              C3H2O             C4H2              IXC4H3            TXC3H5            
C3H5O             C4H               C8H2              C6H2              C4H6              NXC4H5            IXC4H5            A1XC6H6           
OCHO              HOCHO             HOCH2O            CH3O2H            O2CHO             HO2CHO            C2H4O2H           C2H3O1X2          
CH3CO             C2H4OH            CH3CO2            C2H5O2            CH3CO3            CH3CO3H           HOC2H4O2          C2H5OH            
CH3CHOH           CYCCCCJO          THFXC4H8O         CYCCCJCO          CYCCCGO2GCO       CYCCCGO2HGCO      CYCCCDCO          CYCCDCCO          
C3H6CHOX1         C4H7O1X4          CYCCJCDCO         CYCCCGOHGCJO      HCOHCO            C2H3CHCHO         SXC3H5CHO         CYC3H5GCHOG       
SXC3H5CO          C5H9OX5           MTHFX2            C5H9OX4           C5H9OX3           C5H9OX2           C5H9OX1           C4H8X1            
CH3COCH3          CJCCOCDC          C2H3OCH2          OJCCCCDC          C4H71X4           CJCOCGDCGC        CH3COCH2          CJCCCGDOGC        
CJOCGCGCDC        C4H71X3           OJCCCDCC          C4H72X1           CDCCCGCGOJ        CDCCOCJC          CDCOCGCJGC        ODCCCCJC          
C4H7O             CYCCCDCGCGO       CYCCDCCGCGO       CYCDCCCGCGO       CYCDCCJCGCGO      CYCJCGOHGCCGCGO   C3H5CHCHO         C7H14X1           
C7H131X3          PXC4H9            C7H133X1          C5H91X1           C6H12X1           C5H10X1           C5H91X3           C2H3OH            
CH2CCH2OH         C3H5OH            IXC4H7OH          NXC4H9CHO         NXC4H9CO          AXC3H5CHO         AXC3H5CO          NXC4H9COCH3       
NXC4H9COCH2       NXC3H7CHO         NXC3H7CO          C2H5CHO           C2H5CO            C4H7CHO1X4        C4H7CO1X4         C2H3CO            
SXC4H9            PXC4H9O2          SXC4H9O2          C4H8OOH1X2        C4H8OOH1X3        C4H8OOH1X4        C4H8OOH2X1        C4H8OOH2X3        
C4H8OOH2X4        C4H8X2            C4H8O1X2          C4H8O1X3          C4H8O1X4          C4H8O2X3          C4H8OOH1X1        C4H8OOH2X2        
C2H5COCH3         C4H8OOH1X2O2      C4H8OOH1X3O2      C4H8OOH1X4O2      C4H8OOH2X1O2      C4H8OOH2X3O2      C4H8OOH2X4O2      NC4KET12          
NC4KET13          NC4KET14          NC4KET21          NC4KET23          NC4KET24          CH2CH2CHO         BTHFRX2           BTHFRX3           
BTHFRX4           BTHFRX5           BTHFRX6           BTHFRX7           BTHFRX8           BTHFRX9           CJCOCGDCGCCCC     CJCCCGDOGCCCC     
CJOCGCCCCGCDC     OJCCCDCCCCC       CDCCCGCCCCGOJ     CDCCOCJCCCC       CDCOCGCJGC4       ODCCCCJCCCC       CJCCOCDCCCC       OJCCCCDCCCC       
CYCCCCGOGCDC      CYCCCCGOGCCDC     CYCCCDCGCCCCGO    CYCCDCCGCCCCGO    CYCDCCCGCCCCGO    CYCCCCGOGCDCCC    CYCCCCGOGCCDCC    CYCCCCGOGCCCDC    
CYCDCCJCGCCCCGO   CYCCCCGOGCDCCJC   CYCCCCGOGCDCJ     CYCCCCGOGCJCDC    CYCJCGOHGCCGC4GO  C6H11CHCHO        BTHFRX2O2         BTHFRX3O2         
BTHFRX4O2         BTHFRX5O2         BTHFRX6O2         BTHFRX7O2         BTHFRX8O2         BTHFRX9O2         BTHFRX2O          BTHFRX3O          
BTHFRX4O          BTHFRX5O          BTHFRX6O          BTHFRX7O          BTHFRX8O          BTHFRX9O          BTHFX2OOHX6       BTHFX7OOHX6       
BTHFX2OOHX3       BTHFX3OOHX4       BTHFX4OOHX3       BTHFX5OOHX4       BTHFX6OOHX7       BTHFX7OOHX8       BTHFX8OOHX7       BTHFX9OOHX8       
BTHFX4OOHX5       BTHFX3OOHX2       BTHFX6OOHX2       BTHFX7OOHX9       BTHFX3OOHX6       BTHFX8OOHX6       BTHFX2OOHX4       BTHFX2OOHX7       
BTHFX5OOHX3       BTHFX6OOHX8       BTHFX6OOHX3       BTHFX9OOHX7       BTHFX2OOHX5       BTHFX3OOHX5       BTHFX4OOHX2       BTHFX5OOHX2       
BTHFX7OOHX2       BTHFX6OOHX9       BTHFX4OOHX6       BTHFX9OOHX6       BTHFX2OOHX8       BTHFX3OOHX7       BTHFX5OOHX6       BTHFX6OOHX4       
BTHFX7OOHX3       BTHFX6OOHX5       BTHFX8OOHX2       BTHFX2OOHX9       BTHFX3OOHX8       BTHFX4OOHX7       BTHFX5OOHX7       BTHFX7OOHX4       
BTHFX8OOHX3       BTHFX7OOHX5       BTHFX9OOHX2       CYCCCCGDCCCCGO    BTHFRX2O2H        BTHFRX3O2H        BTHFRX4O2H        BTHFRX5O2H        
BTHFRX6O2H        BTHFRX7O2H        BTHFRX8O2H        BTHFRX9O2H        BTHFXCEX12        BTHFXCEX13        BTHFXCEX14        BTHFXCEX15        
CCCCCGDOGOCCDC    CCCCCGDOGCCCDO    CYCCCCGDOGO       CCCCCGCDOGOCDC    CCCCDCOCCCDO      CCCCCGDCGOCCDO    CCCCCGCDCGOCDO    CYCCCCGOGCDO      
CYCCCCGOGDC       CYCCCCGOGCCDO     BTHFX2OOHX3O2     BTHFX2OOHX4O2     BTHFX2OOHX5O2     BTHFX2OOHX6O2     BTHFX2OOHX7O2     BTHFX2OOHX8O2     
BTHFX2OOHX9O2     BTHFX3OOHX2O2     BTHFX3OOHX4O2     BTHFX3OOHX5O2     BTHFX3OOHX6O2     BTHFX3OOHX7O2     BTHFX3OOHX8O2     BTHFX4OOHX2O2     
BTHFX4OOHX3O2     BTHFX4OOHX5O2     BTHFX4OOHX6O2     BTHFX4OOHX7O2     BTHFX5OOHX2O2     BTHFX5OOHX3O2     BTHFX5OOHX4O2     BTHFX5OOHX6O2     
BTHFX5OOHX7O2     BTHFX6OOHX2O2     BTHFX6OOHX3O2     BTHFX6OOHX4O2     BTHFX6OOHX5O2     BTHFX6OOHX7O2     BTHFX6OOHX8O2     BTHFX6OOHX9O2     
BTHFX7OOHX2O2     BTHFX7OOHX3O2     BTHFX7OOHX4O2     BTHFX7OOHX5O2     BTHFX7OOHX6O2     BTHFX7OOHX8O2     BTHFX7OOHX9O2     BTHFX8OOHX2O2     
BTHFX8OOHX3O2     BTHFX8OOHX6O2     BTHFX8OOHX7O2     BTHFX9OOHX2O2     BTHFX9OOHX6O2     BTHFX9OOHX7O2     BTHFX9OOHX8O2     BTHFIKET3         
BTHFIKET4         BTHFIKET5         BTHFIKET6         BTHFIKET7         BTHFIKET8         BTHFIKET9         BTHFKET6X7        BTHFKET9X8        
BTHFKET3X4        BTHFKET4X3        BTHFKET4X5        BTHFKET7X6        BTHFKET7X8        BTHFKET8X7        BTHFKET6X2        BTHFKET5X4        
BTHFKET3X2        BTHFKET9X7        BTHFKET6X3        BTHFKET6X8        BTHFKET3X5        BTHFKET3X6        BTHFKET8X6        BTHFKET7X2        
BTHFKET4X2        BTHFKET7X9        BTHFKET5X2        BTHFKET5X3        BTHFKET6X4        BTHFKET6X5        BTHFKET6X9        BTHFKET9X6        
BTHFKET3X7        BTHFKET4X6        BTHFKET7X3        BTHFKET8X2        BTHFKET5X6        BTHFKET9X2        BTHFKET8X3        BTHFKET3X8        
BTHFKET4X7        BTHFKET7X4        BTHFKET7X5        BTHFKET5X7        NXC4H9CHCO        CYCCCGDOGCJO      CYCJCCGDOGCO      CYCJCCCGDOGO      
C5H8O2XLUMP       CYCCCCGOGCJDO     C4H6O2XLUMP       CYCCCCGOGCCJDO    C5H7O2XLUMP       C4H5O2XLUMP       C8H13O2XLUMP      CYCCCGDOGCO       
CYCCCCGOGDCJ      OOE4X1O2          OOE1X4O2          OOE4X1D           OOE1X3D           OOE4X1OOHX3       OOE1X4OOHX2       OOE4X1OOHX3O2     
OOE1X4OOHX2O2     OOE4XKET13        OOE1XKET42        C3H4O2            DHFX34X2OOH       DHFX45X2OOH       DHFX45X3OOH       DHFX23X4OOH       
DHFX23X5OOH       DHFX34X5OOH       DHFX34X2O         DHFX45X2O         DHFX45X3O         DHFX23X4O         DHFX23X5O         DHFX34X5O         
END
REACTIONS
H+O2<=>O+OH                              1.040e+14    0.000  15286.09
O+H2<=>H+OH                              3.818e+12    0.000   7947.90
     DUPLICATE
O+H2<=>H+OH                              8.792e+14    0.000  19169.93
     DUPLICATE
H2+OH<=>H2O+H                            2.160e+08    1.510   3429.97
2OH<=>O+H2O                              3.340e+04    2.420  -1929.97
H2+M<=>2H+M                              4.577e+19   -1.400 104380.02
H2/2.50/ H2O/12.00/ AR/0.00/ HE/0.00/ CO/1.90/ CO2/3.80/ 
H2+AR<=>2H+AR                            5.840e+18   -1.100 104380.02
H2+HE<=>2H+HE                            5.840e+18   -1.100 104380.02
2O+M<=>O2+M                              6.165e+15   -0.500      0.00
H2/2.50/ H2O/12.00/ AR/0.00/ HE/0.00/ CO/1.90/ CO2/3.80/ 
2O+AR<=>O2+AR                            1.886e+13    0.000  -1788.00
2O+HE<=>O2+HE                            1.886e+13    0.000  -1788.00
O+H+M<=>OH+M                             4.714e+18   -1.000      0.00
H2/2.50/ H2O/12.00/ AR/0.75/ HE/0.75/ CO/1.90/ CO2/3.80/ 
H2O+M<=>H+OH+M                           6.064e+27   -3.322 120789.91
N2/2.00/ O2/1.50/ H2/3.00/ H2O/0.00/ HE/1.10/ CO/1.90/ CO2/3.80/ 
2H2O<=>H+OH+H2O                          1.006e+26   -2.440 120179.97
H+O2(+M)<=>HO2(+M)                       4.651e+12    0.440      0.00
O2/0.78/ H2/2.00/ H2O/14.00/ AR/0.67/ HE/0.80/ CO/1.90/ CO2/3.80/ 
     LOW  /  6.366e+20   -1.720    524.86 /
!     FCCHECK/     0.5     1e-30    0.5     1e+30      0         0
     TROE/     0.5    1e-30     1e+30        /
HO2+H<=>H2+O2                            2.750e+06    2.090  -1451.00
HO2+H<=>2OH                              7.079e+13    0.000    294.93
HO2+O<=>O2+OH                            2.850e+10    1.000   -723.95
HO2+OH<=>H2O+O2                          2.890e+13    0.000   -496.89
2HO2<=>H2O2+O2                           4.200e+14    0.000  11982.07
     DUPLICATE
2HO2<=>H2O2+O2                           1.300e+11    0.000  -1629.30
     DUPLICATE
H2O2(+M)<=>2OH(+M)                       2.000e+12    0.900  48749.04
N2/1.50/ O2/1.20/ H2/3.70/ H2O/7.50/ HE/0.65/ H2O2/7.70/ CO/2.80/ CO2/1.60/ 
     LOW  /  2.490e+24   -2.300  48750.00 /
!     FCCHECK/    0.57     1e-30   0.43     1e+30      0         0
     TROE/    0.43    1e-30     1e+30        /
H2O2+H<=>H2O+OH                          2.410e+13    0.000   3969.89
H2O2+H<=>HO2+H2                          4.820e+13    0.000   7950.05
H2O2+O<=>OH+HO2                          9.550e+06    2.000   3969.89
H2O2+OH<=>HO2+H2O                        1.740e+12    0.000    318.12
     DUPLICATE
H2O2+OH<=>HO2+H2O                        7.590e+13    0.000   7270.08
     DUPLICATE
CO+O(+M)<=>CO2(+M)                       1.800e+10    0.000   2385.28
H2/2.00/ H2O/12.00/ AR/0.70/ CO/1.75/ CO2/3.60/ 
     LOW  /  1.550e+24   -2.790   4192.16 /
!     FCCHECK/       0         0      0         0      1         0
     TROE/       1     1.00 10000000.00 10000000.00 /
CO+OH<=>CO2+H                            7.046e+04    2.053   -355.64
     DUPLICATE
CO+OH<=>CO2+H                            5.757e+12   -0.664    331.74
     DUPLICATE
CO+O2<=>CO2+O                            1.050e+12    0.000  47700.05
CO+HO2<=>CO2+OH                          1.570e+05    2.180  17942.64
HCO+H<=>CO+H2                            1.200e+14    0.000      0.00
HCO+O<=>CO+OH                            3.000e+13    0.000      0.00
HCO+O<=>CO2+H                            3.000e+13    0.000      0.00
HCO+OH<=>CO+H2O                          3.020e+13    0.000      0.00
HCO+M<=>CO+H+M                           4.748e+11    0.659  14873.80
H2/2.00/ H2O/0.00/ CO/1.75/ CO2/3.60/ 
HCO+O2<=>CO+HO2                          7.580e+12    0.000    409.89
C+OH<=>CO+H                              5.000e+13    0.000      0.00
C+O2<=>CO+O                              5.800e+13    0.000    576.00
CH+H<=>C+H2                              1.650e+14    0.000      0.00
CH+O<=>CO+H                              5.700e+13    0.000      0.00
CH+OH<=>HCO+H                            3.000e+13    0.000      0.00
CH+H2<=>TXCH2+H                          1.080e+14    0.000   3109.46
CH+H2(+M)<=>CH3(+M)                      1.970e+12    0.430   -370.46
H2/2.00/ H2O/12.00/ AR/0.70/ CO/1.75/ CO2/3.60/ CH4/2.00/ C2H6/3.00/ 
     LOW  /  4.820e+25   -2.800    590.34 /
     TROE/   0.578      122      2535      9365 /
CH+H2O<=>CH2O+H                          5.710e+12    0.000   -755.26
CH+O2<=>HCO+O                            6.710e+13    0.000      0.00
CH+CO(+M)<=>HCCO(+M)                     5.000e+13    0.000      0.00
H2/2.00/ H2O/12.00/ AR/0.70/ CO/1.75/ CO2/3.60/ CH4/2.00/ C2H6/3.00/ 
     LOW  /  2.690e+28   -3.740   1935.95 /
     TROE/  0.5757      237      1652      5069 /
CH+CO2<=>HCO+CO                          1.900e+14    0.000  15791.11
CO+H2(+M)<=>CH2O(+M)                     4.300e+07    1.500  79600.86
H2/2.00/ H2O/12.00/ AR/0.70/ CO/1.75/ CO2/3.60/ CH4/2.00/ C2H6/3.00/ 
     LOW  /  5.070e+27   -3.420  84349.90 /
     TROE/   0.932      197      1540     10300 /
HCO+H(+M)<=>CH2O(+M)                     1.090e+12    0.480   -260.52
H2/2.00/ H2O/12.00/ AR/0.70/ CO/1.75/ CO2/3.60/ CH4/2.00/ C2H6/3.00/ 
     LOW  /  2.470e+24   -2.570    425.43 /
     TROE/  0.7824      271      2755      6570 /
TXCH2+H(+M)<=>CH3(+M)                    6.000e+14    0.000      0.00
H2/2.00/ H2O/12.00/ AR/0.70/ CO/1.75/ CO2/3.60/ CH4/2.00/ C2H6/3.00/ 
     LOW  /  1.040e+26   -2.760   1598.95 /
     TROE/   0.562       91      5836      8552 /
TXCH2+O<=>HCO+H                          8.000e+13    0.000      0.00
TXCH2+OH<=>CH2O+H                        2.000e+13    0.000      0.00
TXCH2+OH<=>CH+H2O                        1.130e+07    2.000   2999.52
TXCH2+H2<=>H+CH3                         5.000e+05    2.000   7229.92
TXCH2+O2=>CO2+2H                         5.800e+12    0.000   1500.96
TXCH2+O2<=>CH2O+O                        2.400e+12    0.000   1500.96
TXCH2+O2=>OH+H+CO                        5.000e+12    0.000   1500.96
TXCH2+HO2<=>CH2O+OH                      2.000e+13    0.000      0.00
TXCH2+C<=>C2H+H                          5.000e+13    0.000      0.00
TXCH2+CO(+M)<=>CH2CO(+M)                 8.100e+11    0.500   4510.04
H2/2.00/ H2O/12.00/ AR/0.70/ CO/1.75/ CO2/3.60/ CH4/2.00/ C2H6/3.00/ 
     LOW  /  2.690e+33   -5.110   7096.08 /
     TROE/  0.5907      275      1226      5185 /
TXCH2+CH<=>C2H2+H                        4.000e+13    0.000      0.00
2TXCH2<=>C2H2+H2                         1.600e+15    0.000  11943.12
2TXCH2=>C2H2+2H                          2.000e+14    0.000  10989.48
SXCH2+N2<=>TXCH2+N2                      1.500e+13    0.000    599.90
SXCH2+AR<=>TXCH2+AR                      9.000e+12    0.000    599.90
SXCH2+H<=>CH+H2                          3.000e+13    0.000      0.00
SXCH2+O<=>CO+H2                          1.500e+13    0.000      0.00
SXCH2+O<=>HCO+H                          1.500e+13    0.000      0.00
SXCH2+OH<=>CH2O+H                        3.000e+13    0.000      0.00
SXCH2+H2<=>CH3+H                         7.000e+13    0.000      0.00
SXCH2+O2<=>H+OH+CO                       2.800e+13    0.000      0.00
SXCH2+O2<=>CO+H2O                        1.200e+13    0.000      0.00
SXCH2+H2O(+M)<=>CH3OH(+M)                4.820e+17   -1.160   1144.84
H2/2.00/ H2O/12.00/ AR/0.70/ CO/1.75/ CO2/3.60/ CH4/2.00/ C2H6/3.00/ 
     LOW  /  1.880e+38   -6.360   5040.63 /
     TROE/  0.6027      208      3922     10180 /
SXCH2+H2O<=>TXCH2+H2O                    3.000e+13    0.000      0.00
SXCH2+H2O=>H2+CH2O                       6.820e+10    0.250   -934.51
SXCH2+CO<=>TXCH2+CO                      9.000e+12    0.000      0.00
SXCH2+CO2<=>TXCH2+CO2                    7.000e+12    0.000      0.00
SXCH2+CO2<=>CH2O+CO                      1.400e+13    0.000      0.00
CH2O+H(+M)<=>CH2OH(+M)                   5.400e+11    0.450   3599.43
H2/2.00/ H2O/12.00/ AR/0.70/ CO/1.75/ CO2/3.60/ CH4/2.00/ C2H6/3.00/ 
     LOW  /  1.270e+32   -4.820   6529.64 /
     TROE/  0.7187      103      1291      4160 /
CH2O+H(+M)<=>CH3O(+M)                    5.400e+11    0.450   2600.38
H2/2.00/ H2O/12.00/ AR/0.70/ CO/1.75/ CO2/3.60/ CH4/2.00/ C2H6/3.00/ 
     LOW  /  2.200e+30   -4.800   5559.27 /
     TROE/   0.758       94      1555      4200 /
CH2O+H<=>HCO+H2                          5.740e+07    1.900   2741.40
CH2O+O<=>HCO+OH                          3.900e+13    0.000   3539.67
CH2O+OH<=>HCO+H2O                        3.430e+09    1.180   -446.94
CH2O+O2<=>HCO+HO2                        1.000e+14    0.000  40000.00
CH2O+HO2<=>HCO+H2O2                      5.600e+06    2.000  12000.48
CH2O+CH<=>CH2CO+H                        9.460e+13    0.000   -516.25
CH3+H(+M)<=>CH4(+M)                      6.920e+13    0.180      0.00
H2/2.00/ H2O/6.00/ AR/0.70/ CO/1.50/ CO2/2.00/ CH4/3.00/ C2H6/3.00/ 
     LOW  /  3.470e+38   -6.300   5074.09 /
     TROE/   0.783       74      2941      6964 /
CH3+O<=>CH2O+H                           5.060e+13    0.000      0.00
CH3+O=>H+H2+CO                           3.370e+13    0.000      0.00
CH3+OH(+M)<=>CH3OH(+M)                   2.790e+18   -1.430   1331.26
H2/2.00/ H2O/12.00/ AR/0.70/ CO/1.75/ CO2/3.60/ CH4/2.00/ C2H6/3.00/ 
     LOW  /  4.000e+36   -5.920   3140.54 /
     TROE/   0.412      195      5900      6394 /
CH3+OH<=>TXCH2+H2O                       5.600e+07    1.600   5420.65
CH3+OH=>H2+CH2O                          8.000e+09    0.000  -1754.30
CH3+OH<=>SXCH2+H2O                       6.440e+17   -1.340   1417.30
CH3+O2<=>CH3O+O                          1.380e+13    0.000  30521.03
CH3+O2<=>CH2O+OH                         5.870e+11    0.000  13840.82
CH3+O2(+M)<=>CH3O2(+M)                   1.010e+08    1.630      0.00

     LOW  /  3.820e+31   -4.890   3432.12 /
     TROE/   0.045    880.1   2.5e+09 1.786e+09 /
CH3O2+CH3<=>2CH3O                        1.000e+13    0.000  -1199.81
2CH3O2=>2CH3O+O2                         1.400e+16   -1.610   1859.46
CH3O2+HO2=>CH3O+OH+O2                    2.470e+11    0.000  -1570.27
CH3O2+CH2O=>CH3O+OH+HCO                  1.990e+12    0.000  11670.65
CH3+HO2<=>CH3O+OH                        1.000e+13    0.000      0.00
CH3+HO2<=>CH4+O2                         3.610e+12    0.000      0.00
CH3+H2O2<=>CH4+HO2                       2.450e+04    2.470   5179.25
CH3+C<=>C2H2+H                           5.000e+13    0.000      0.00
CH3+CH<=>C2H3+H                          3.000e+13    0.000      0.00
CH3+HCO<=>CH4+CO                         2.650e+13    0.000      0.00
CH3+CH2O<=>CH4+HCO                       3.320e+03    2.810   5860.42
CH3+TXCH2<=>C2H4+H                       1.000e+14    0.000      0.00
CH3+SXCH2<=>C2H4+H                       1.200e+13    0.000   -571.22
2CH3<=>C2H5+H                            6.840e+12    0.100  10599.90
CH3O+H(+M)<=>CH3OH(+M)                   2.430e+12    0.520     50.19
H2/2.00/ H2O/12.00/ AR/0.70/ CO/1.75/ CO2/3.60/ CH4/2.00/ C2H6/3.00/ 
     LOW  /  4.660e+41   -7.440  14079.83 /
     TROE/     0.7      100     90000     10000 /
CH3O+H<=>CH2OH+H                         4.150e+07    1.630   1924.00
CH3O+H<=>CH2O+H2                         2.000e+13    0.000      0.00
CH3O+H<=>CH3+OH                          1.500e+12    0.500   -109.94
CH3O+H<=>SXCH2+H2O                       2.620e+14   -0.230   1070.75
CH3O+O<=>CH2O+OH                         1.000e+13    0.000      0.00
CH3O+OH<=>CH2O+H2O                       5.000e+12    0.000      0.00
CH3O+O2<=>CH2O+HO2                       4.280e-13    7.600  -3530.11
CH2OH+H(+M)<=>CH3OH(+M)                  1.060e+12    0.500     86.04
H2/2.00/ H2O/12.00/ AR/0.70/ CO/1.75/ CO2/3.60/ CH4/2.00/ C2H6/3.00/ 
     LOW  /  4.360e+31   -4.650   5081.26 /
     TROE/     0.6      100      9000     10000 /
CH2OH+H<=>CH2O+H2                        2.000e+13    0.000      0.00
CH2OH+H<=>CH3+OH                         1.650e+11    0.650   -284.42
CH2OH+H<=>SXCH2+H2O                      3.280e+13   -0.090    609.46
CH2OH+O<=>CH2O+OH                        1.000e+13    0.000      0.00
CH2OH+OH<=>CH2O+H2O                      5.000e+12    0.000      0.00
CH2OH+O2<=>CH2O+HO2                      1.800e+13    0.000    901.05
CH4+H<=>CH3+H2                           6.600e+08    1.620  10841.30
CH4+O<=>CH3+OH                           1.020e+09    1.500   8599.43
CH4+OH<=>CH3+H2O                         1.000e+08    1.600   3119.02
CH4+CH<=>C2H4+H                          6.000e+13    0.000      0.00
CH4+TXCH2<=>2CH3                         2.460e+06    2.000   8269.60
CH4+SXCH2<=>2CH3                         1.600e+13    0.000   -571.22
CH3OH+H<=>CH2OH+H2                       1.700e+07    2.100   4870.94
CH3OH+H<=>CH3O+H2                        4.200e+06    2.100   4870.94
CH3OH+O<=>CH2OH+OH                       3.880e+05    2.500   3099.90
CH3OH+O<=>CH3O+OH                        1.300e+05    2.500   5000.00
CH3OH+OH<=>CH2OH+H2O                     1.440e+06    2.000   -841.30
CH3OH+OH<=>CH3O+H2O                      6.300e+06    2.000   1500.96
CH3OH+CH3<=>CH2OH+CH4                    3.000e+07    1.500   9940.25
CH3OH+CH3<=>CH3O+CH4                     1.000e+07    1.500   9940.25
C2H+H(+M)<=>C2H2(+M)                     1.000e+17   -1.000      0.00
H2/2.00/ H2O/12.00/ AR/0.70/ CO/1.75/ CO2/3.60/ CH4/2.00/ C2H6/3.00/ 
     LOW  /  2.600e+33   -4.800   1900.10 /
     TROE/  0.6464      132      1315      5566 /
C2H+O<=>CH+CO                            5.000e+13    0.000      0.00
C2H+OH<=>H+HCCO                          2.000e+13    0.000      0.00
C2H+O2<=>HCO+CO                          1.000e+13    0.000   -755.26
C2H+H2<=>C2H2+H                          3.310e+06    2.260    901.05
HCCO+H<=>SXCH2+CO                        1.000e+14    0.000      0.00
HCCO+O<=>H+2CO                           1.000e+14    0.000      0.00
HCCO+O2<=>OH+2CO                         4.200e+10    0.000    853.25
HCCO+CH<=>C2H2+CO                        5.000e+13    0.000      0.00
HCCO+TXCH2<=>C2H3+CO                     3.000e+13    0.000      0.00
2HCCO<=>C2H2+2CO                         1.000e+13    0.000      0.00
C2H2+H(+M)<=>C2H3(+M)                    1.710e+10    1.270   2707.93
H2/2.00/ H2O/12.00/ AR/0.70/ CO/1.75/ CO2/3.60/ CH4/2.00/ C2H6/3.00/ 
     LOW  /  6.340e+31   -4.660   3781.07 /
!     FCCHECK/  0.2122    -10212      0         1      0         1
     TROE/  0.2122     1.00    -10212 /
C2H2+O<=>HCCO+H                          8.100e+06    2.000   1900.10
C2H2+O<=>TXCH2+CO                        1.250e+07    2.000   1900.10
C2H+OH<=>C2H2+O                          1.810e+13    0.000      0.00
C2H2+OH<=>C2H+H2O                        2.630e+06    2.140  17060.23
C2H2+OH<=>HCCOH+H                        2.410e+06    2.000  12712.72
C2H2+OH<=>CH2CO+H                        7.530e+06    1.550   2105.64
C2H2+OH<=>CH3+CO                         1.280e+09    0.730   2578.87
CH2CO+H<=>HCCO+H2                        5.000e+13    0.000   7999.52
CH2CO+H<=>CH3+CO                         1.500e+09    1.380    614.24
CH2CO+O<=>HCCO+OH                        1.000e+13    0.000   7999.52
CH2CO+O<=>TXCH2+CO2                      1.750e+12    0.000   1350.38
CH2CO+OH<=>HCCO+H2O                      7.500e+12    0.000   2000.48
HCCOH+H<=>CH2CO+H                        1.000e+13    0.000      0.00
C2H3+H(+M)<=>C2H4(+M)                    6.080e+12    0.270    279.64
H2/2.00/ H2O/12.00/ AR/0.70/ CO/1.75/ CO2/3.60/ CH4/2.00/ C2H6/3.00/ 
     LOW  /  1.400e+30   -3.860   3319.79 /
     TROE/   0.782    207.5      2663      6095 /
C2H3+H<=>C2H2+H2                         3.000e+13    0.000      0.00
C2H3+O<=>CH2CHO                          1.030e+13    0.210   -427.82
C2H3+OH<=>C2H2+H2O                       5.000e+12    0.000      0.00
C2H3+O2<=>C2H2+HO2                       1.340e+06    1.610   -384.80
C2H3+O2<=>CH2CHO+O                       3.030e+11    0.290     11.95
C2H3+O2<=>HCO+CH2O                       4.580e+16   -1.390   1015.77
CH2CHO<=>CH2CO+H                         1.320e+34   -6.570  49457.46
CH2CHO<=>CH3+CO                          6.510e+34   -6.870  47194.07
CH2CHO+O<=>CH2O+HCO                      3.170e+13    0.030   -394.36
CH2CHO+O2=>OH+CO+CH2O                    1.810e+10    0.000      0.00
CH2CHO+O2=>OH+2HCO                       2.350e+10    0.000      0.00
CH2CHO+H<=>CH3+HCO                       2.200e+13    0.000      0.00
CH2CHO+H<=>CH2CO+H2                      1.100e+13    0.000      0.00
CH2CHO+OH<=>H2O+CH2CO                    1.200e+13    0.000      0.00
CH2CHO+OH<=>HCO+CH2OH                    3.010e+13    0.000      0.00
CH3+HCO<=>CH3CHO                         5.000e+13    0.000      0.00
CH3CHO+O<=>CH2CHO+OH                     2.920e+12    0.000   1809.27
CH3CHO+H<=>CH2CHO+H2                     2.050e+09    1.160   2404.40
CH3CHO+H=>CH3+CO+H2                      2.050e+09    1.160   2404.40
CH3CHO+O=>CH3+CO+OH                      2.920e+12    0.000   1809.27
CH3CHO+O2=>CH3+CO+HO2                    3.010e+13    0.000  39149.14
CH3CHO+OH=>CH3+CO+H2O                    2.340e+10    0.730  -1113.77
CH3CHO+HO2=>CH3+CO+H2O2                  3.010e+12    0.000  11924.00
CH3CHO+CH3=>CH3+CO+CH4                   2.720e+06    1.770   5920.17
C2H4(+M)<=>H2C2+H2(+M)                   8.000e+12    0.440  88800.19
H2/2.00/ H2O/6.00/ AR/0.70/ CO/1.75/ CO2/3.60/ CH4/2.00/ C2H6/3.00/ 
     LOW  /  7.000e+50   -9.310  99899.62 /
     TROE/   0.735      180      1035      5417 /
C2H4+H(+M)<=>C2H5(+M)                    1.370e+09    1.460   1355.16
H2/2.00/ H2O/12.00/ AR/0.70/ CO/1.75/ CO2/3.60/ CH4/2.00/ C2H6/3.00/ 
     LOW  /  2.030e+39   -6.640   5769.60 /
     TROE/  -0.569      299     -9147     152.4 /
C2H4+H<=>C2H3+H2                         1.270e+05    2.750  11649.14
C2H4+O<=>CH2CHO+H                        7.660e+09    0.880   1140.06
C2H4+O<=>TXCH2+CH2O                      7.150e+04    2.470    929.73
C2H4+O<=>CH3+HCO                         3.890e+08    1.360    886.71
C2H4+OH<=>C2H3+H2O                       1.310e-01    4.200   -860.42
C2H4+OH<=>C2H5O                          3.750e+36   -7.800   7060.23
C2H4+CH3<=>C2H3+CH4                      2.270e+05    2.000   9199.33
C2H4+CH3(+M)<=>NXC3H7(+M)                2.550e+06    1.600   5700.29
H2/2.00/ H2O/12.00/ AR/0.70/ CO/1.75/ CO2/3.60/ CH4/2.00/ C2H6/3.00/ 
     LOW  /  3.000e+63  -14.600  18169.22 /
     TROE/  0.1894      277      8748      7891 /
C2H5+H(+M)<=>C2H6(+M)                    5.210e+17   -0.990   1579.83
H2/2.00/ H2O/12.00/ AR/0.70/ CO/1.75/ CO2/3.60/ CH4/2.00/ C2H6/3.00/ 
     LOW  /  1.990e+41   -7.080   6684.99 /
     TROE/  0.8422      125      2219      6882 /
C2H5+H<=>C2H4+H2                         2.000e+12    0.000      0.00
C2H5+CH3<=>C2H4+CH4                      1.180e+04    2.450   2920.65
C2H5+O<=>C2H5O                           3.170e+13    0.030   -394.36
C2H5O<=>CH3+CH2O                         1.320e+20   -2.020  20750.48
C2H5O<=>CH3CHO+H                         5.450e+15   -0.690  22229.92
C2H5O+O2<=>CH3CHO+HO2                    2.290e+10    0.000    874.76
C2H5+O2<=>C2H4+HO2                       1.920e+07    1.020  -2033.94
C3H8(+M)<=>C2H5+CH3(+M)                  1.290e+37   -5.840  97387.67
H2/2.00/ H2O/12.00/ AR/0.70/ CO/1.75/ CO2/3.60/ CH4/2.00/ C2H6/3.00/ 
     LOW  /  5.640e+74  -15.740  98718.93 /
     TROE/    0.31       50      3000      9000 /
C2H6(+M)<=>2CH3(+M)                      1.880e+50   -9.720 107342.26
H2/2.00/ H2O/12.00/ AR/0.70/ CO/1.75/ CO2/3.60/ CH4/2.00/ C2H6/3.00/ 
     LOW  /  3.720e+65  -13.140 101579.83 /
     TROE/    0.39      100      1900      6000 /
C2H6+H<=>C2H5+H2                         1.700e+05    2.700   5740.92
C2H6+O<=>C2H5+OH                         3.170e+01    3.800   3130.98
C2H6+OH<=>C2H5+H2O                       1.610e+06    2.220    740.92
C2H6+SXCH2<=>C2H5+CH3                    4.000e+13    0.000   -549.71
C2H6+CH3<=>C2H5+CH4                      8.430e+14    0.000  22256.21
NXC3H7+O<=>C2H5+CH2O                     3.170e+13    0.030   -394.36
NXC3H7+H(+M)<=>C3H8(+M)                  3.610e+13    0.000      0.00
H2/2.00/ H2O/12.00/ AR/0.70/ CO/1.75/ CO2/3.60/ CH4/2.00/ C2H6/3.00/ 
     LOW  /  4.420e+61  -13.550  11357.55 /
     TROE/   0.315      369      3285      6667 /
NXC3H7+OH<=>C3H6+H2O                     2.410e+13    0.000      0.00
NXC3H7+CH3<=>C3H6+CH4                    3.310e+12    0.000   -769.60
C3H6+H(+M)<=>NXC3H7(+M)                  3.060e+14   -0.370   4032.03
H2/2.00/ H2O/12.00/ AR/0.70/ CO/1.75/ CO2/3.60/ CH4/2.00/ C2H6/3.00/ 
     LOW  /  6.260e+38   -6.660   7000.48 /
     TROE/       1     1000      1310     48097 /
NXC3H7+O2<=>C3H6+HO2                     3.700e+16   -1.630   3417.78
C3H8+H<=>NXC3H7+H2                       5.800e-02    4.710   6211.76
C3H8+O<=>NXC3H7+OH                       2.350e+00    4.090   2545.41
C3H8+OH<=>NXC3H7+H2O                     5.360e+06    2.010    365.68
C3H8+CH3<=>NXC3H7+CH4                    9.030e-01    3.650   7153.44
C3H8+HO2<=>NXC3H7+H2O2                   9.640e+03    2.600  13910.13
C2H2+M<=>H2C2+M                          2.450e+15   -0.640  49698.85
H2/2.00/ H2O/6.00/ AR/0.70/ CO/1.75/ CO2/3.60/ CH4/2.00/ C2H6/3.00/ 
H2C2+O2<=>TXCH2+CO2                      3.300e+12    0.000      0.00
H2C2+O2<=>2HCO                           1.000e+13    0.000      0.00
C2H2+SXCH2<=>C3H3+H                      1.900e+14    0.000      0.00
PXC3H4+H<=>C2H2+CH3                      3.460e+12    0.440   5463.67
AXC3H4+H<=>C2H2+CH3                      8.950e+13   -0.020  11250.00
C2H2+CH3<=>SXC3H5                        7.450e+43  -10.130  18522.94
C2H2+C2H<=>NXC4H3                        7.800e+13    0.000      0.00
C2H2+HCCO<=>C3H3+CO                      1.000e+11    0.000   2999.52
C2H3+H2O2<=>C2H4+HO2                     1.210e+10    0.000   -595.12
C2H3+HCO<=>C2H4+CO                       9.000e+13    0.000      0.00
C2H3+HCO<=>C2H3CHO                       1.800e+13    0.000      0.00
C2H3+CH3<=>C2H2+CH4                      9.030e+12    0.000   -764.82
C3H6<=>C2H3+CH3                          4.040e+42   -7.670 111830.78
C2H3+CH3<=>AXC3H5+H                      1.930e+18   -1.250   7669.69
AXC3H5+H<=>C3H6                          5.930e+54  -11.760  23549.24